<?xml version="1.0" encoding="UTF-8"?>

<!-- generated on 2025-10-21 18:39:32 by Eclipse SUMO netgenerate Version 1.24.0
<netgenerateConfiguration xmlns:xsi="http://www.w3.org/2001/XMLSchema-instance" xsi:noNamespaceSchemaLocation="http://sumo.dlr.de/xsd/netgenerateConfiguration.xsd">

    <grid_network>
        <grid value="true"/>
        <grid.number value="4"/>
    </grid_network>

    <output>
        <output-file value="bus.net.xml"/>
    </output>

    <processing>
        <lefthand value="true"/>
    </processing>

    <building_defaults>
        <default.lanenumber value="2"/>
        <default.speed value="13.89"/>
    </building_defaults>

    <junctions>
        <no-turnarounds value="true"/>
    </junctions>

</netgenerateConfiguration>
-->

<net version="1.20" junctionCornerDetail="5" lefthand="true" limitTurnSpeed="5.50" xmlns:xsi="http://www.w3.org/2001/XMLSchema-instance" xsi:noNamespaceSchemaLocation="http://sumo.dlr.de/xsd/net_file.xsd">

    <location netOffset="0.00,-0.00" convBoundary="0.00,-0.00,300.00,300.00" origBoundary="0.00,0.00,300.00,300.00" projParameter="!"/>

    <edge id=":A0_0" function="internal">
        <lane id=":A0_0_0" index="0" speed="8.96" length="18.06" shape="6.40,-4.80 1.50,-4.10 -2.00,-2.00 -4.10,1.50 -4.80,6.40"/>
        <lane id=":A0_0_1" index="1" speed="7.66" length="12.90" shape="6.40,-1.60 2.90,-1.10 0.40,0.40 -1.10,2.90 -1.60,6.40"/>
    </edge>
    <edge id=":A0_2" function="internal">
        <lane id=":A0_2_0" index="0" speed="3.90" length="2.58" shape="4.80,6.40 4.90,5.70 5.20,5.20 5.70,4.90 6.40,4.80"/>
        <lane id=":A0_2_1" index="1" speed="6.08" length="7.74" shape="1.60,6.40 1.90,4.30 2.80,2.80 4.30,1.90 6.40,1.60"/>
    </edge>
    <edge id=":A1_0" function="internal">
        <lane id=":A1_0_0" index="0" speed="13.89" length="20.80" shape="-4.80,89.60 -4.80,110.40"/>
        <lane id=":A1_0_1" index="1" speed="13.89" length="20.80" shape="-1.60,89.60 -1.60,110.40"/>
    </edge>
    <edge id=":A1_2" function="internal">
        <lane id=":A1_2_0" index="0" speed="9.26" length="5.01" shape="-1.60,89.60 -0.89,94.56"/>
    </edge>
    <edge id=":A1_8" function="internal">
        <lane id=":A1_8_0" index="0" speed="9.26" length="14.34" shape="-0.89,94.56 -0.85,94.85 1.40,98.60 5.15,100.85 10.40,101.60"/>
    </edge>
    <edge id=":A1_3" function="internal">
        <lane id=":A1_3_0" index="0" speed="6.51" length="9.03" shape="10.40,95.20 7.95,94.85 6.20,93.80 5.15,92.05 4.80,89.60"/>
    </edge>
    <edge id=":A1_4" function="internal">
        <lane id=":A1_4_0" index="0" speed="9.26" length="19.35" shape="10.40,98.40 5.15,99.15 1.40,101.40 -0.85,105.15 -1.60,110.40"/>
    </edge>
    <edge id=":A1_5" function="internal">
        <lane id=":A1_5_0" index="0" speed="6.51" length="9.03" shape="4.80,110.40 5.15,107.95 6.20,106.20 7.95,105.15 10.40,104.80"/>
    </edge>
    <edge id=":A1_6" function="internal">
        <lane id=":A1_6_0" index="0" speed="13.89" length="20.80" shape="4.80,110.40 4.80,89.60"/>
        <lane id=":A1_6_1" index="1" speed="13.89" length="20.80" shape="1.60,110.40 1.60,89.60"/>
    </edge>
    <edge id=":A2_0" function="internal">
        <lane id=":A2_0_0" index="0" speed="13.89" length="20.80" shape="-4.80,189.60 -4.80,210.40"/>
        <lane id=":A2_0_1" index="1" speed="13.89" length="20.80" shape="-1.60,189.60 -1.60,210.40"/>
    </edge>
    <edge id=":A2_2" function="internal">
        <lane id=":A2_2_0" index="0" speed="9.26" length="5.01" shape="-1.60,189.60 -0.89,194.56"/>
    </edge>
    <edge id=":A2_8" function="internal">
        <lane id=":A2_8_0" index="0" speed="9.26" length="14.34" shape="-0.89,194.56 -0.85,194.85 1.40,198.60 5.15,200.85 10.40,201.60"/>
    </edge>
    <edge id=":A2_3" function="internal">
        <lane id=":A2_3_0" index="0" speed="6.51" length="9.03" shape="10.40,195.20 7.95,194.85 6.20,193.80 5.15,192.05 4.80,189.60"/>
    </edge>
    <edge id=":A2_4" function="internal">
        <lane id=":A2_4_0" index="0" speed="9.26" length="19.35" shape="10.40,198.40 5.15,199.15 1.40,201.40 -0.85,205.15 -1.60,210.40"/>
    </edge>
    <edge id=":A2_5" function="internal">
        <lane id=":A2_5_0" index="0" speed="6.51" length="9.03" shape="4.80,210.40 5.15,207.95 6.20,206.20 7.95,205.15 10.40,204.80"/>
    </edge>
    <edge id=":A2_6" function="internal">
        <lane id=":A2_6_0" index="0" speed="13.89" length="20.80" shape="4.80,210.40 4.80,189.60"/>
        <lane id=":A2_6_1" index="1" speed="13.89" length="20.80" shape="1.60,210.40 1.60,189.60"/>
    </edge>
    <edge id=":A3_0" function="internal">
        <lane id=":A3_0_0" index="0" speed="8.96" length="18.06" shape="-4.80,293.60 -4.10,298.50 -2.00,302.00 1.50,304.10 6.40,304.80"/>
        <lane id=":A3_0_1" index="1" speed="7.66" length="12.90" shape="-1.60,293.60 -1.10,297.10 0.40,299.60 2.90,301.10 6.40,301.60"/>
    </edge>
    <edge id=":A3_2" function="internal">
        <lane id=":A3_2_0" index="0" speed="3.90" length="2.58" shape="6.40,295.20 5.70,295.10 5.20,294.80 4.90,294.30 4.80,293.60"/>
        <lane id=":A3_2_1" index="1" speed="6.08" length="7.74" shape="6.40,298.40 4.30,298.10 2.80,297.20 1.90,295.70 1.60,293.60"/>
    </edge>
    <edge id=":B0_0" function="internal">
        <lane id=":B0_0_0" index="0" speed="13.89" length="20.80" shape="110.40,-4.80 89.60,-4.80"/>
        <lane id=":B0_0_1" index="1" speed="13.89" length="20.80" shape="110.40,-1.60 89.60,-1.60"/>
    </edge>
    <edge id=":B0_2" function="internal">
        <lane id=":B0_2_0" index="0" speed="9.26" length="5.01" shape="110.40,-1.60 105.44,-0.89"/>
    </edge>
    <edge id=":B0_8" function="internal">
        <lane id=":B0_8_0" index="0" speed="9.26" length="14.34" shape="105.44,-0.89 105.15,-0.85 101.40,1.40 99.15,5.15 98.40,10.40"/>
    </edge>
    <edge id=":B0_3" function="internal">
        <lane id=":B0_3_0" index="0" speed="6.51" length="9.03" shape="104.80,10.40 105.15,7.95 106.20,6.20 107.95,5.15 110.40,4.80"/>
    </edge>
    <edge id=":B0_4" function="internal">
        <lane id=":B0_4_0" index="0" speed="9.26" length="19.35" shape="101.60,10.40 100.85,5.15 98.60,1.40 94.85,-0.85 89.60,-1.60"/>
    </edge>
    <edge id=":B0_5" function="internal">
        <lane id=":B0_5_0" index="0" speed="6.51" length="9.03" shape="89.60,4.80 92.05,5.15 93.80,6.20 94.85,7.95 95.20,10.40"/>
    </edge>
    <edge id=":B0_6" function="internal">
        <lane id=":B0_6_0" index="0" speed="13.89" length="20.80" shape="89.60,4.80 110.40,4.80"/>
        <lane id=":B0_6_1" index="1" speed="13.89" length="20.80" shape="89.60,1.60 110.40,1.60"/>
    </edge>
    <edge id=":B1_0" function="internal">
        <lane id=":B1_0_0" index="0" speed="6.51" length="9.03" shape="95.20,89.60 94.85,92.05 93.80,93.80 92.05,94.85 89.60,95.20"/>
    </edge>
    <edge id=":B1_1" function="internal">
        <lane id=":B1_1_0" index="0" speed="13.89" length="20.80" shape="95.20,89.60 95.20,110.40"/>
        <lane id=":B1_1_1" index="1" speed="13.89" length="20.80" shape="98.40,89.60 98.40,110.40"/>
    </edge>
    <edge id=":B1_3" function="internal">
        <lane id=":B1_3_0" index="0" speed="9.26" length="5.01" shape="98.40,89.60 99.11,94.56"/>
    </edge>
    <edge id=":B1_16" function="internal">
        <lane id=":B1_16_0" index="0" speed="9.26" length="14.34" shape="99.11,94.56 99.15,94.85 101.40,98.60 105.15,100.85 110.40,101.60"/>
    </edge>
    <edge id=":B1_4" function="internal">
        <lane id=":B1_4_0" index="0" speed="6.51" length="9.03" shape="110.40,95.20 107.95,94.85 106.20,93.80 105.15,92.05 104.80,89.60"/>
    </edge>
    <edge id=":B1_5" function="internal">
        <lane id=":B1_5_0" index="0" speed="13.89" length="20.80" shape="110.40,95.20 89.60,95.20"/>
        <lane id=":B1_5_1" index="1" speed="13.89" length="20.80" shape="110.40,98.40 89.60,98.40"/>
    </edge>
    <edge id=":B1_7" function="internal">
        <lane id=":B1_7_0" index="0" speed="9.26" length="19.35" shape="110.40,98.40 105.15,99.15 101.40,101.40 99.15,105.15 98.40,110.40"/>
    </edge>
    <edge id=":B1_8" function="internal">
        <lane id=":B1_8_0" index="0" speed="6.51" length="9.03" shape="104.80,110.40 105.15,107.95 106.20,106.20 107.95,105.15 110.40,104.80"/>
    </edge>
    <edge id=":B1_9" function="internal">
        <lane id=":B1_9_0" index="0" speed="13.89" length="20.80" shape="104.80,110.40 104.80,89.60"/>
        <lane id=":B1_9_1" index="1" speed="13.89" length="20.80" shape="101.60,110.40 101.60,89.60"/>
    </edge>
    <edge id=":B1_11" function="internal">
        <lane id=":B1_11_0" index="0" speed="9.26" length="5.01" shape="101.60,110.40 100.89,105.44"/>
    </edge>
    <edge id=":B1_17" function="internal">
        <lane id=":B1_17_0" index="0" speed="9.26" length="14.34" shape="100.89,105.44 100.85,105.15 98.60,101.40 94.85,99.15 89.60,98.40"/>
    </edge>
    <edge id=":B1_12" function="internal">
        <lane id=":B1_12_0" index="0" speed="6.51" length="9.03" shape="89.60,104.80 92.05,105.15 93.80,106.20 94.85,107.95 95.20,110.40"/>
    </edge>
    <edge id=":B1_13" function="internal">
        <lane id=":B1_13_0" index="0" speed="13.89" length="20.80" shape="89.60,104.80 110.40,104.80"/>
        <lane id=":B1_13_1" index="1" speed="13.89" length="20.80" shape="89.60,101.60 110.40,101.60"/>
    </edge>
    <edge id=":B1_15" function="internal">
        <lane id=":B1_15_0" index="0" speed="9.26" length="19.35" shape="89.60,101.60 94.85,100.85 98.60,98.60 100.85,94.85 101.60,89.60"/>
    </edge>
    <edge id=":B2_0" function="internal">
        <lane id=":B2_0_0" index="0" speed="6.51" length="9.03" shape="95.20,189.60 94.85,192.05 93.80,193.80 92.05,194.85 89.60,195.20"/>
    </edge>
    <edge id=":B2_1" function="internal">
        <lane id=":B2_1_0" index="0" speed="13.89" length="20.80" shape="95.20,189.60 95.20,210.40"/>
        <lane id=":B2_1_1" index="1" speed="13.89" length="20.80" shape="98.40,189.60 98.40,210.40"/>
    </edge>
    <edge id=":B2_3" function="internal">
        <lane id=":B2_3_0" index="0" speed="9.26" length="5.01" shape="98.40,189.60 99.11,194.56"/>
    </edge>
    <edge id=":B2_16" function="internal">
        <lane id=":B2_16_0" index="0" speed="9.26" length="14.34" shape="99.11,194.56 99.15,194.85 101.40,198.60 105.15,200.85 110.40,201.60"/>
    </edge>
    <edge id=":B2_4" function="internal">
        <lane id=":B2_4_0" index="0" speed="6.51" length="9.03" shape="110.40,195.20 107.95,194.85 106.20,193.80 105.15,192.05 104.80,189.60"/>
    </edge>
    <edge id=":B2_5" function="internal">
        <lane id=":B2_5_0" index="0" speed="13.89" length="20.80" shape="110.40,195.20 89.60,195.20"/>
        <lane id=":B2_5_1" index="1" speed="13.89" length="20.80" shape="110.40,198.40 89.60,198.40"/>
    </edge>
    <edge id=":B2_7" function="internal">
        <lane id=":B2_7_0" index="0" speed="9.26" length="19.35" shape="110.40,198.40 105.15,199.15 101.40,201.40 99.15,205.15 98.40,210.40"/>
    </edge>
    <edge id=":B2_8" function="internal">
        <lane id=":B2_8_0" index="0" speed="6.51" length="9.03" shape="104.80,210.40 105.15,207.95 106.20,206.20 107.95,205.15 110.40,204.80"/>
    </edge>
    <edge id=":B2_9" function="internal">
        <lane id=":B2_9_0" index="0" speed="13.89" length="20.80" shape="104.80,210.40 104.80,189.60"/>
        <lane id=":B2_9_1" index="1" speed="13.89" length="20.80" shape="101.60,210.40 101.60,189.60"/>
    </edge>
    <edge id=":B2_11" function="internal">
        <lane id=":B2_11_0" index="0" speed="9.26" length="5.01" shape="101.60,210.40 100.89,205.44"/>
    </edge>
    <edge id=":B2_17" function="internal">
        <lane id=":B2_17_0" index="0" speed="9.26" length="14.34" shape="100.89,205.44 100.85,205.15 98.60,201.40 94.85,199.15 89.60,198.40"/>
    </edge>
    <edge id=":B2_12" function="internal">
        <lane id=":B2_12_0" index="0" speed="6.51" length="9.03" shape="89.60,204.80 92.05,205.15 93.80,206.20 94.85,207.95 95.20,210.40"/>
    </edge>
    <edge id=":B2_13" function="internal">
        <lane id=":B2_13_0" index="0" speed="13.89" length="20.80" shape="89.60,204.80 110.40,204.80"/>
        <lane id=":B2_13_1" index="1" speed="13.89" length="20.80" shape="89.60,201.60 110.40,201.60"/>
    </edge>
    <edge id=":B2_15" function="internal">
        <lane id=":B2_15_0" index="0" speed="9.26" length="19.35" shape="89.60,201.60 94.85,200.85 98.60,198.60 100.85,194.85 101.60,189.60"/>
    </edge>
    <edge id=":B3_0" function="internal">
        <lane id=":B3_0_0" index="0" speed="6.51" length="9.03" shape="95.20,289.60 94.85,292.05 93.80,293.80 92.05,294.85 89.60,295.20"/>
    </edge>
    <edge id=":B3_1" function="internal">
        <lane id=":B3_1_0" index="0" speed="9.26" length="19.35" shape="98.40,289.60 99.15,294.85 101.40,298.60 105.15,300.85 110.40,301.60"/>
    </edge>
    <edge id=":B3_2" function="internal">
        <lane id=":B3_2_0" index="0" speed="6.51" length="9.03" shape="110.40,295.20 107.95,294.85 106.20,293.80 105.15,292.05 104.80,289.60"/>
    </edge>
    <edge id=":B3_3" function="internal">
        <lane id=":B3_3_0" index="0" speed="13.89" length="20.80" shape="110.40,295.20 89.60,295.20"/>
        <lane id=":B3_3_1" index="1" speed="13.89" length="20.80" shape="110.40,298.40 89.60,298.40"/>
    </edge>
    <edge id=":B3_5" function="internal">
        <lane id=":B3_5_0" index="0" speed="13.89" length="20.80" shape="89.60,304.80 110.40,304.80"/>
        <lane id=":B3_5_1" index="1" speed="13.89" length="20.80" shape="89.60,301.60 110.40,301.60"/>
    </edge>
    <edge id=":B3_7" function="internal">
        <lane id=":B3_7_0" index="0" speed="9.26" length="5.01" shape="89.60,301.60 94.56,300.89"/>
    </edge>
    <edge id=":B3_8" function="internal">
        <lane id=":B3_8_0" index="0" speed="9.26" length="14.34" shape="94.56,300.89 94.85,300.85 98.60,298.60 100.85,294.85 101.60,289.60"/>
    </edge>
    <edge id=":C0_0" function="internal">
        <lane id=":C0_0_0" index="0" speed="13.89" length="20.80" shape="210.40,-4.80 189.60,-4.80"/>
        <lane id=":C0_0_1" index="1" speed="13.89" length="20.80" shape="210.40,-1.60 189.60,-1.60"/>
    </edge>
    <edge id=":C0_2" function="internal">
        <lane id=":C0_2_0" index="0" speed="9.26" length="5.01" shape="210.40,-1.60 205.44,-0.89"/>
    </edge>
    <edge id=":C0_8" function="internal">
        <lane id=":C0_8_0" index="0" speed="9.26" length="14.34" shape="205.44,-0.89 205.15,-0.85 201.40,1.40 199.15,5.15 198.40,10.40"/>
    </edge>
    <edge id=":C0_3" function="internal">
        <lane id=":C0_3_0" index="0" speed="6.51" length="9.03" shape="204.80,10.40 205.15,7.95 206.20,6.20 207.95,5.15 210.40,4.80"/>
    </edge>
    <edge id=":C0_4" function="internal">
        <lane id=":C0_4_0" index="0" speed="9.26" length="19.35" shape="201.60,10.40 200.85,5.15 198.60,1.40 194.85,-0.85 189.60,-1.60"/>
    </edge>
    <edge id=":C0_5" function="internal">
        <lane id=":C0_5_0" index="0" speed="6.51" length="9.03" shape="189.60,4.80 192.05,5.15 193.80,6.20 194.85,7.95 195.20,10.40"/>
    </edge>
    <edge id=":C0_6" function="internal">
        <lane id=":C0_6_0" index="0" speed="13.89" length="20.80" shape="189.60,4.80 210.40,4.80"/>
        <lane id=":C0_6_1" index="1" speed="13.89" length="20.80" shape="189.60,1.60 210.40,1.60"/>
    </edge>
    <edge id=":C1_0" function="internal">
        <lane id=":C1_0_0" index="0" speed="6.51" length="9.03" shape="195.20,89.60 194.85,92.05 193.80,93.80 192.05,94.85 189.60,95.20"/>
    </edge>
    <edge id=":C1_1" function="internal">
        <lane id=":C1_1_0" index="0" speed="13.89" length="20.80" shape="195.20,89.60 195.20,110.40"/>
        <lane id=":C1_1_1" index="1" speed="13.89" length="20.80" shape="198.40,89.60 198.40,110.40"/>
    </edge>
    <edge id=":C1_3" function="internal">
        <lane id=":C1_3_0" index="0" speed="9.26" length="5.01" shape="198.40,89.60 199.11,94.56"/>
    </edge>
    <edge id=":C1_16" function="internal">
        <lane id=":C1_16_0" index="0" speed="9.26" length="14.34" shape="199.11,94.56 199.15,94.85 201.40,98.60 205.15,100.85 210.40,101.60"/>
    </edge>
    <edge id=":C1_4" function="internal">
        <lane id=":C1_4_0" index="0" speed="6.51" length="9.03" shape="210.40,95.20 207.95,94.85 206.20,93.80 205.15,92.05 204.80,89.60"/>
    </edge>
    <edge id=":C1_5" function="internal">
        <lane id=":C1_5_0" index="0" speed="13.89" length="20.80" shape="210.40,95.20 189.60,95.20"/>
        <lane id=":C1_5_1" index="1" speed="13.89" length="20.80" shape="210.40,98.40 189.60,98.40"/>
    </edge>
    <edge id=":C1_7" function="internal">
        <lane id=":C1_7_0" index="0" speed="9.26" length="19.35" shape="210.40,98.40 205.15,99.15 201.40,101.40 199.15,105.15 198.40,110.40"/>
    </edge>
    <edge id=":C1_8" function="internal">
        <lane id=":C1_8_0" index="0" speed="6.51" length="9.03" shape="204.80,110.40 205.15,107.95 206.20,106.20 207.95,105.15 210.40,104.80"/>
    </edge>
    <edge id=":C1_9" function="internal">
        <lane id=":C1_9_0" index="0" speed="13.89" length="20.80" shape="204.80,110.40 204.80,89.60"/>
        <lane id=":C1_9_1" index="1" speed="13.89" length="20.80" shape="201.60,110.40 201.60,89.60"/>
    </edge>
    <edge id=":C1_11" function="internal">
        <lane id=":C1_11_0" index="0" speed="9.26" length="5.01" shape="201.60,110.40 200.89,105.44"/>
    </edge>
    <edge id=":C1_17" function="internal">
        <lane id=":C1_17_0" index="0" speed="9.26" length="14.34" shape="200.89,105.44 200.85,105.15 198.60,101.40 194.85,99.15 189.60,98.40"/>
    </edge>
    <edge id=":C1_12" function="internal">
        <lane id=":C1_12_0" index="0" speed="6.51" length="9.03" shape="189.60,104.80 192.05,105.15 193.80,106.20 194.85,107.95 195.20,110.40"/>
    </edge>
    <edge id=":C1_13" function="internal">
        <lane id=":C1_13_0" index="0" speed="13.89" length="20.80" shape="189.60,104.80 210.40,104.80"/>
        <lane id=":C1_13_1" index="1" speed="13.89" length="20.80" shape="189.60,101.60 210.40,101.60"/>
    </edge>
    <edge id=":C1_15" function="internal">
        <lane id=":C1_15_0" index="0" speed="9.26" length="19.35" shape="189.60,101.60 194.85,100.85 198.60,98.60 200.85,94.85 201.60,89.60"/>
    </edge>
    <edge id=":C2_0" function="internal">
        <lane id=":C2_0_0" index="0" speed="6.51" length="9.03" shape="195.20,189.60 194.85,192.05 193.80,193.80 192.05,194.85 189.60,195.20"/>
    </edge>
    <edge id=":C2_1" function="internal">
        <lane id=":C2_1_0" index="0" speed="13.89" length="20.80" shape="195.20,189.60 195.20,210.40"/>
        <lane id=":C2_1_1" index="1" speed="13.89" length="20.80" shape="198.40,189.60 198.40,210.40"/>
    </edge>
    <edge id=":C2_3" function="internal">
        <lane id=":C2_3_0" index="0" speed="9.26" length="5.01" shape="198.40,189.60 199.11,194.56"/>
    </edge>
    <edge id=":C2_16" function="internal">
        <lane id=":C2_16_0" index="0" speed="9.26" length="14.34" shape="199.11,194.56 199.15,194.85 201.40,198.60 205.15,200.85 210.40,201.60"/>
    </edge>
    <edge id=":C2_4" function="internal">
        <lane id=":C2_4_0" index="0" speed="6.51" length="9.03" shape="210.40,195.20 207.95,194.85 206.20,193.80 205.15,192.05 204.80,189.60"/>
    </edge>
    <edge id=":C2_5" function="internal">
        <lane id=":C2_5_0" index="0" speed="13.89" length="20.80" shape="210.40,195.20 189.60,195.20"/>
        <lane id=":C2_5_1" index="1" speed="13.89" length="20.80" shape="210.40,198.40 189.60,198.40"/>
    </edge>
    <edge id=":C2_7" function="internal">
        <lane id=":C2_7_0" index="0" speed="9.26" length="19.35" shape="210.40,198.40 205.15,199.15 201.40,201.40 199.15,205.15 198.40,210.40"/>
    </edge>
    <edge id=":C2_8" function="internal">
        <lane id=":C2_8_0" index="0" speed="6.51" length="9.03" shape="204.80,210.40 205.15,207.95 206.20,206.20 207.95,205.15 210.40,204.80"/>
    </edge>
    <edge id=":C2_9" function="internal">
        <lane id=":C2_9_0" index="0" speed="13.89" length="20.80" shape="204.80,210.40 204.80,189.60"/>
        <lane id=":C2_9_1" index="1" speed="13.89" length="20.80" shape="201.60,210.40 201.60,189.60"/>
    </edge>
    <edge id=":C2_11" function="internal">
        <lane id=":C2_11_0" index="0" speed="9.26" length="5.01" shape="201.60,210.40 200.89,205.44"/>
    </edge>
    <edge id=":C2_17" function="internal">
        <lane id=":C2_17_0" index="0" speed="9.26" length="14.34" shape="200.89,205.44 200.85,205.15 198.60,201.40 194.85,199.15 189.60,198.40"/>
    </edge>
    <edge id=":C2_12" function="internal">
        <lane id=":C2_12_0" index="0" speed="6.51" length="9.03" shape="189.60,204.80 192.05,205.15 193.80,206.20 194.85,207.95 195.20,210.40"/>
    </edge>
    <edge id=":C2_13" function="internal">
        <lane id=":C2_13_0" index="0" speed="13.89" length="20.80" shape="189.60,204.80 210.40,204.80"/>
        <lane id=":C2_13_1" index="1" speed="13.89" length="20.80" shape="189.60,201.60 210.40,201.60"/>
    </edge>
    <edge id=":C2_15" function="internal">
        <lane id=":C2_15_0" index="0" speed="9.26" length="19.35" shape="189.60,201.60 194.85,200.85 198.60,198.60 200.85,194.85 201.60,189.60"/>
    </edge>
    <edge id=":C3_0" function="internal">
        <lane id=":C3_0_0" index="0" speed="6.51" length="9.03" shape="195.20,289.60 194.85,292.05 193.80,293.80 192.05,294.85 189.60,295.20"/>
    </edge>
    <edge id=":C3_1" function="internal">
        <lane id=":C3_1_0" index="0" speed="9.26" length="19.35" shape="198.40,289.60 199.15,294.85 201.40,298.60 205.15,300.85 210.40,301.60"/>
    </edge>
    <edge id=":C3_2" function="internal">
        <lane id=":C3_2_0" index="0" speed="6.51" length="9.03" shape="210.40,295.20 207.95,294.85 206.20,293.80 205.15,292.05 204.80,289.60"/>
    </edge>
    <edge id=":C3_3" function="internal">
        <lane id=":C3_3_0" index="0" speed="13.89" length="20.80" shape="210.40,295.20 189.60,295.20"/>
        <lane id=":C3_3_1" index="1" speed="13.89" length="20.80" shape="210.40,298.40 189.60,298.40"/>
    </edge>
    <edge id=":C3_5" function="internal">
        <lane id=":C3_5_0" index="0" speed="13.89" length="20.80" shape="189.60,304.80 210.40,304.80"/>
        <lane id=":C3_5_1" index="1" speed="13.89" length="20.80" shape="189.60,301.60 210.40,301.60"/>
    </edge>
    <edge id=":C3_7" function="internal">
        <lane id=":C3_7_0" index="0" speed="9.26" length="5.01" shape="189.60,301.60 194.56,300.89"/>
    </edge>
    <edge id=":C3_8" function="internal">
        <lane id=":C3_8_0" index="0" speed="9.26" length="14.34" shape="194.56,300.89 194.85,300.85 198.60,298.60 200.85,294.85 201.60,289.60"/>
    </edge>
    <edge id=":D0_0" function="internal">
        <lane id=":D0_0_0" index="0" speed="8.96" length="18.06" shape="304.80,6.40 304.10,1.50 302.00,-2.00 298.50,-4.10 293.60,-4.80"/>
        <lane id=":D0_0_1" index="1" speed="7.66" length="12.90" shape="301.60,6.40 301.10,2.90 299.60,0.40 297.10,-1.10 293.60,-1.60"/>
    </edge>
    <edge id=":D0_2" function="internal">
        <lane id=":D0_2_0" index="0" speed="3.90" length="2.58" shape="293.60,4.80 294.30,4.90 294.80,5.20 295.10,5.70 295.20,6.40"/>
        <lane id=":D0_2_1" index="1" speed="6.08" length="7.74" shape="293.60,1.60 295.70,1.90 297.20,2.80 298.10,4.30 298.40,6.40"/>
    </edge>
    <edge id=":D1_0" function="internal">
        <lane id=":D1_0_0" index="0" speed="6.51" length="9.03" shape="295.20,89.60 294.85,92.05 293.80,93.80 292.05,94.85 289.60,95.20"/>
    </edge>
    <edge id=":D1_1" function="internal">
        <lane id=":D1_1_0" index="0" speed="13.89" length="20.80" shape="295.20,89.60 295.20,110.40"/>
        <lane id=":D1_1_1" index="1" speed="13.89" length="20.80" shape="298.40,89.60 298.40,110.40"/>
    </edge>
    <edge id=":D1_3" function="internal">
        <lane id=":D1_3_0" index="0" speed="13.89" length="20.80" shape="304.80,110.40 304.80,89.60"/>
        <lane id=":D1_3_1" index="1" speed="13.89" length="20.80" shape="301.60,110.40 301.60,89.60"/>
    </edge>
    <edge id=":D1_5" function="internal">
        <lane id=":D1_5_0" index="0" speed="9.26" length="5.01" shape="301.60,110.40 300.89,105.44"/>
    </edge>
    <edge id=":D1_8" function="internal">
        <lane id=":D1_8_0" index="0" speed="9.26" length="14.34" shape="300.89,105.44 300.85,105.15 298.60,101.40 294.85,99.15 289.60,98.40"/>
    </edge>
    <edge id=":D1_6" function="internal">
        <lane id=":D1_6_0" index="0" speed="6.51" length="9.03" shape="289.60,104.80 292.05,105.15 293.80,106.20 294.85,107.95 295.20,110.40"/>
    </edge>
    <edge id=":D1_7" function="internal">
        <lane id=":D1_7_0" index="0" speed="9.26" length="19.35" shape="289.60,101.60 294.85,100.85 298.60,98.60 300.85,94.85 301.60,89.60"/>
    </edge>
    <edge id=":D2_0" function="internal">
        <lane id=":D2_0_0" index="0" speed="6.51" length="9.03" shape="295.20,189.60 294.85,192.05 293.80,193.80 292.05,194.85 289.60,195.20"/>
    </edge>
    <edge id=":D2_1" function="internal">
        <lane id=":D2_1_0" index="0" speed="13.89" length="20.80" shape="295.20,189.60 295.20,210.40"/>
        <lane id=":D2_1_1" index="1" speed="13.89" length="20.80" shape="298.40,189.60 298.40,210.40"/>
    </edge>
    <edge id=":D2_3" function="internal">
        <lane id=":D2_3_0" index="0" speed="13.89" length="20.80" shape="304.80,210.40 304.80,189.60"/>
        <lane id=":D2_3_1" index="1" speed="13.89" length="20.80" shape="301.60,210.40 301.60,189.60"/>
    </edge>
    <edge id=":D2_5" function="internal">
        <lane id=":D2_5_0" index="0" speed="9.26" length="5.01" shape="301.60,210.40 300.89,205.44"/>
    </edge>
    <edge id=":D2_8" function="internal">
        <lane id=":D2_8_0" index="0" speed="9.26" length="14.34" shape="300.89,205.44 300.85,205.15 298.60,201.40 294.85,199.15 289.60,198.40"/>
    </edge>
    <edge id=":D2_6" function="internal">
        <lane id=":D2_6_0" index="0" speed="6.51" length="9.03" shape="289.60,204.80 292.05,205.15 293.80,206.20 294.85,207.95 295.20,210.40"/>
    </edge>
    <edge id=":D2_7" function="internal">
        <lane id=":D2_7_0" index="0" speed="9.26" length="19.35" shape="289.60,201.60 294.85,200.85 298.60,198.60 300.85,194.85 301.60,189.60"/>
    </edge>
    <edge id=":D3_0" function="internal">
        <lane id=":D3_0_0" index="0" speed="3.90" length="2.58" shape="295.20,293.60 295.10,294.30 294.80,294.80 294.30,295.10 293.60,295.20"/>
        <lane id=":D3_0_1" index="1" speed="6.08" length="7.74" shape="298.40,293.60 298.10,295.70 297.20,297.20 295.70,298.10 293.60,298.40"/>
    </edge>
    <edge id=":D3_2" function="internal">
        <lane id=":D3_2_0" index="0" speed="8.96" length="18.06" shape="293.60,304.80 298.50,304.10 302.00,302.00 304.10,298.50 304.80,293.60"/>
        <lane id=":D3_2_1" index="1" speed="7.66" length="12.90" shape="293.60,301.60 297.10,301.10 299.60,299.60 301.10,297.10 301.60,293.60"/>
    </edge>

    <edge id="A0A1" from="A0" to="A1" priority="-1">
        <lane id="A0A1_0" index="0" speed="13.89" length="83.20" shape="-4.80,6.40 -4.80,89.60"/>
        <lane id="A0A1_1" index="1" speed="13.89" length="83.20" shape="-1.60,6.40 -1.60,89.60"/>
    </edge>
    <edge id="A0B0" from="A0" to="B0" priority="-1">
        <lane id="A0B0_0" index="0" speed="13.89" length="83.20" shape="6.40,4.80 89.60,4.80"/>
        <lane id="A0B0_1" index="1" speed="13.89" length="83.20" shape="6.40,1.60 89.60,1.60"/>
    </edge>
    <edge id="A1A0" from="A1" to="A0" priority="-1">
        <lane id="A1A0_0" index="0" speed="13.89" length="83.20" shape="4.80,89.60 4.80,6.40"/>
        <lane id="A1A0_1" index="1" speed="13.89" length="83.20" shape="1.60,89.60 1.60,6.40"/>
    </edge>
    <edge id="A1A2" from="A1" to="A2" priority="-1">
        <lane id="A1A2_0" index="0" speed="13.89" length="79.20" shape="-4.80,110.40 -4.80,189.60"/>
        <lane id="A1A2_1" index="1" speed="13.89" length="79.20" shape="-1.60,110.40 -1.60,189.60"/>
    </edge>
    <edge id="A1B1" from="A1" to="B1" priority="-1">
        <lane id="A1B1_0" index="0" speed="13.89" length="79.20" shape="10.40,104.80 89.60,104.80"/>
        <lane id="A1B1_1" index="1" speed="13.89" length="79.20" shape="10.40,101.60 89.60,101.60"/>
    </edge>
    <edge id="A2A1" from="A2" to="A1" priority="-1">
        <lane id="A2A1_0" index="0" speed="13.89" length="79.20" shape="4.80,189.60 4.80,110.40"/>
        <lane id="A2A1_1" index="1" speed="13.89" length="79.20" shape="1.60,189.60 1.60,110.40"/>
    </edge>
    <edge id="A2A3" from="A2" to="A3" priority="-1">
        <lane id="A2A3_0" index="0" speed="13.89" length="83.20" shape="-4.80,210.40 -4.80,293.60"/>
        <lane id="A2A3_1" index="1" speed="13.89" length="83.20" shape="-1.60,210.40 -1.60,293.60"/>
    </edge>
    <edge id="A2B2" from="A2" to="B2" priority="-1">
        <lane id="A2B2_0" index="0" speed="13.89" length="79.20" shape="10.40,204.80 89.60,204.80"/>
        <lane id="A2B2_1" index="1" speed="13.89" length="79.20" shape="10.40,201.60 89.60,201.60"/>
    </edge>
    <edge id="A3A2" from="A3" to="A2" priority="-1">
        <lane id="A3A2_0" index="0" speed="13.89" length="83.20" shape="4.80,293.60 4.80,210.40"/>
        <lane id="A3A2_1" index="1" speed="13.89" length="83.20" shape="1.60,293.60 1.60,210.40"/>
    </edge>
    <edge id="A3B3" from="A3" to="B3" priority="-1">
        <lane id="A3B3_0" index="0" speed="13.89" length="83.20" shape="6.40,304.80 89.60,304.80"/>
        <lane id="A3B3_1" index="1" speed="13.89" length="83.20" shape="6.40,301.60 89.60,301.60"/>
    </edge>
    <edge id="B0A0" from="B0" to="A0" priority="-1">
        <lane id="B0A0_0" index="0" speed="13.89" length="83.20" shape="89.60,-4.80 6.40,-4.80"/>
        <lane id="B0A0_1" index="1" speed="13.89" length="83.20" shape="89.60,-1.60 6.40,-1.60"/>
    </edge>
    <edge id="B0B1" from="B0" to="B1" priority="-1">