<?xml version="1.0" encoding="UTF-8"?>

<!-- generated on 2026-01-24T18:48:14.453092+08:00 by Eclipse SUMO netgenerate 1.25.0
<netgenerateConfiguration xmlns:xsi="http://www.w3.org/2001/XMLSchema-instance" xsi:noNamespaceSchemaLocation="http://sumo.dlr.de/xsd/netgenerateConfiguration.xsd">

    <grid_network>
        <grid value="true"/>
        <grid.number value="4"/>
        <grid.length value="350"/>
    </grid_network>

    <output>
        <output-file value="bus_4x4_350.net.xml"/>
    </output>

    <processing>
        <lefthand value="true"/>
    </processing>

    <building_defaults>
        <default.lanenumber value="2"/>
        <default.speed value="13.89"/>
    </building_defaults>

    <junctions>
        <no-turnarounds value="true"/>
    </junctions>

</netgenerateConfiguration>
-->

<net version="1.20" junctionCornerDetail="5" lefthand="true" limitTurnSpeed="5.50" xmlns:xsi="http://www.w3.org/2001/XMLSchema-instance" xsi:noNamespaceSchemaLocation="http://sumo.dlr.de/xsd/net_file.xsd">

    <location netOffset="0.00,-0.00" convBoundary="0.00,-0.00,1050.00,1050.00" origBoundary="0.00,0.00,1050.00,1050.00" projParameter="!"/>

    <edge id=":A0_0" function="internal">
        <lane id=":A0_0_0" index="0" speed="8.96" length="18.06" shape="6.40,-4.80 1.50,-4.10 -2.00,-2.00 -4.10,1.50 -4.80,6.40"/>
        <lane id=":A0_0_1" index="1" speed="7.66" length="12.90" shape="6.40,-1.60 2.90,-1.10 0.40,0.40 -1.10,2.90 -1.60,6.40"/>
    </edge>
    <edge id=":A0_2" function="internal">
        <lane id=":A0_2_0" index="0" speed="3.90" length="2.58" shape="4.80,6.40 4.90,5.70 5.20,5.20 5.70,4.90 6.40,4.80"/>
        <lane id=":A0_2_1" index="1" speed="6.08" length="7.74" shape="1.60,6.40 1.90,4.30 2.80,2.80 4.30,1.90 6.40,1.60"/>
    </edge>
    <edge id=":A1_0" function="internal">
        <lane id=":A1_0_0" index="0" speed="13.89" length="20.80" shape="-4.80,339.60 -4.80,360.40"/>
        <lane id=":A1_0_1" index="1" speed="13.89" length="20.80" shape="-1.60,339.60 -1.60,360.40"/>
    </edge>
    <edge id=":A1_2" function="internal">
        <lane id=":A1_2_0" index="0" speed="9.26" length="5.01" shape="-1.60,339.60 -0.89,344.56"/>
    </edge>
    <edge id=":A1_8" function="internal">
        <lane id=":A1_8_0" index="0" speed="9.26" length="14.34" shape="-0.89,344.56 -0.85,344.85 1.40,348.60 5.15,350.85 10.40,351.60"/>
    </edge>
    <edge id=":A1_3" function="internal">
        <lane id=":A1_3_0" index="0" speed="6.51" length="9.03" shape="10.40,345.20 7.95,344.85 6.20,343.80 5.15,342.05 4.80,339.60"/>
    </edge>
    <edge id=":A1_4" function="internal">
        <lane id=":A1_4_0" index="0" speed="9.26" length="19.35" shape="10.40,348.40 5.15,349.15 1.40,351.40 -0.85,355.15 -1.60,360.40"/>
    </edge>
    <edge id=":A1_5" function="internal">
        <lane id=":A1_5_0" index="0" speed="6.51" length="9.03" shape="4.80,360.40 5.15,357.95 6.20,356.20 7.95,355.15 10.40,354.80"/>
    </edge>
    <edge id=":A1_6" function="internal">
        <lane id=":A1_6_0" index="0" speed="13.89" length="20.80" shape="4.80,360.40 4.80,339.60"/>
        <lane id=":A1_6_1" index="1" speed="13.89" length="20.80" shape="1.60,360.40 1.60,339.60"/>
    </edge>
    <edge id=":A2_0" function="internal">
        <lane id=":A2_0_0" index="0" speed="13.89" length="20.80" shape="-4.80,689.60 -4.80,710.40"/>
        <lane id=":A2_0_1" index="1" speed="13.89" length="20.80" shape="-1.60,689.60 -1.60,710.40"/>
    </edge>
    <edge id=":A2_2" function="internal">
        <lane id=":A2_2_0" index="0" speed="9.26" length="5.01" shape="-1.60,689.60 -0.89,694.56"/>
    </edge>
    <edge id=":A2_8" function="internal">
        <lane id=":A2_8_0" index="0" speed="9.26" length="14.34" shape="-0.89,694.56 -0.85,694.85 1.40,698.60 5.15,700.85 10.40,701.60"/>
    </edge>
    <edge id=":A2_3" function="internal">
        <lane id=":A2_3_0" index="0" speed="6.51" length="9.03" shape="10.40,695.20 7.95,694.85 6.20,693.80 5.15,692.05 4.80,689.60"/>
    </edge>
    <edge id=":A2_4" function="internal">
        <lane id=":A2_4_0" index="0" speed="9.26" length="19.35" shape="10.40,698.40 5.15,699.15 1.40,701.40 -0.85,705.15 -1.60,710.40"/>
    </edge>
    <edge id=":A2_5" function="internal">
        <lane id=":A2_5_0" index="0" speed="6.51" length="9.03" shape="4.80,710.40 5.15,707.95 6.20,706.20 7.95,705.15 10.40,704.80"/>
    </edge>
    <edge id=":A2_6" function="internal">
        <lane id=":A2_6_0" index="0" speed="13.89" length="20.80" shape="4.80,710.40 4.80,689.60"/>
        <lane id=":A2_6_1" index="1" speed="13.89" length="20.80" shape="1.60,710.40 1.60,689.60"/>
    </edge>
    <edge id=":A3_0" function="internal">
        <lane id=":A3_0_0" index="0" speed="8.96" length="18.06" shape="-4.80,1043.60 -4.10,1048.50 -2.00,1052.00 1.50,1054.10 6.40,1054.80"/>
        <lane id=":A3_0_1" index="1" speed="7.66" length="12.90" shape="-1.60,1043.60 -1.10,1047.10 0.40,1049.60 2.90,1051.10 6.40,1051.60"/>
    </edge>
    <edge id=":A3_2" function="internal">
        <lane id=":A3_2_0" index="0" speed="3.90" length="2.58" shape="6.40,1045.20 5.70,1045.10 5.20,1044.80 4.90,1044.30 4.80,1043.60"/>
        <lane id=":A3_2_1" index="1" speed="6.08" length="7.74" shape="6.40,1048.40 4.30,1048.10 2.80,1047.20 1.90,1045.70 1.60,1043.60"/>
    </edge>
    <edge id=":B0_0" function="internal">
        <lane id=":B0_0_0" index="0" speed="13.89" length="20.80" shape="360.40,-4.80 339.60,-4.80"/>
        <lane id=":B0_0_1" index="1" speed="13.89" length="20.80" shape="360.40,-1.60 339.60,-1.60"/>
    </edge>
    <edge id=":B0_2" function="internal">
        <lane id=":B0_2_0" index="0" speed="9.26" length="5.01" shape="360.40,-1.60 355.44,-0.89"/>
    </edge>
    <edge id=":B0_8" function="internal">
        <lane id=":B0_8_0" index="0" speed="9.26" length="14.34" shape="355.44,-0.89 355.15,-0.85 351.40,1.40 349.15,5.15 348.40,10.40"/>
    </edge>
    <edge id=":B0_3" function="internal">
        <lane id=":B0_3_0" index="0" speed="6.51" length="9.03" shape="354.80,10.40 355.15,7.95 356.20,6.20 357.95,5.15 360.40,4.80"/>
    </edge>
    <edge id=":B0_4" function="internal">
        <lane id=":B0_4_0" index="0" speed="9.26" length="19.35" shape="351.60,10.40 350.85,5.15 348.60,1.40 344.85,-0.85 339.60,-1.60"/>
    </edge>
    <edge id=":B0_5" function="internal">
        <lane id=":B0_5_0" index="0" speed="6.51" length="9.03" shape="339.60,4.80 342.05,5.15 343.80,6.20 344.85,7.95 345.20,10.40"/>
    </edge>
    <edge id=":B0_6" function="internal">
        <lane id=":B0_6_0" index="0" speed="13.89" length="20.80" shape="339.60,4.80 360.40,4.80"/>
        <lane id=":B0_6_1" index="1" speed="13.89" length="20.80" shape="339.60,1.60 360.40,1.60"/>
    </edge>
    <edge id=":B1_0" function="internal">
        <lane id=":B1_0_0" index="0" speed="6.51" length="9.03" shape="345.20,339.60 344.85,342.05 343.80,343.80 342.05,344.85 339.60,345.20"/>
    </edge>
    <edge id=":B1_1" function="internal">
        <lane id=":B1_1_0" index="0" speed="13.89" length="20.80" shape="345.20,339.60 345.20,360.40"/>
        <lane id=":B1_1_1" index="1" speed="13.89" length="20.80" shape="348.40,339.60 348.40,360.40"/>
    </edge>
    <edge id=":B1_3" function="internal">
        <lane id=":B1_3_0" index="0" speed="9.26" length="5.01" shape="348.40,339.60 349.11,344.56"/>
    </edge>
    <edge id=":B1_16" function="internal">
        <lane id=":B1_16_0" index="0" speed="9.26" length="14.34" shape="349.11,344.56 349.15,344.85 351.40,348.60 355.15,350.85 360.40,351.60"/>
    </edge>
    <edge id=":B1_4" function="internal">
        <lane id=":B1_4_0" index="0" speed="6.51" length="9.03" shape="360.40,345.20 357.95,344.85 356.20,343.80 355.15,342.05 354.80,339.60"/>
    </edge>
    <edge id=":B1_5" function="internal">
        <lane id=":B1_5_0" index="0" speed="13.89" length="20.80" shape="360.40,345.20 339.60,345.20"/>
        <lane id=":B1_5_1" index="1" speed="13.89" length="20.80" shape="360.40,348.40 339.60,348.40"/>
    </edge>
    <edge id=":B1_7" function="internal">
        <lane id=":B1_7_0" index="0" speed="9.26" length="19.35" shape="360.40,348.40 355.15,349.15 351.40,351.40 349.15,355.15 348.40,360.40"/>
    </edge>
    <edge id=":B1_8" function="internal">
        <lane id=":B1_8_0" index="0" speed="6.51" length="9.03" shape="354.80,360.40 355.15,357.95 356.20,356.20 357.95,355.15 360.40,354.80"/>
    </edge>
    <edge id=":B1_9" function="internal">
        <lane id=":B1_9_0" index="0" speed="13.89" length="20.80" shape="354.80,360.40 354.80,339.60"/>
        <lane id=":B1_9_1" index="1" speed="13.89" length="20.80" shape="351.60,360.40 351.60,339.60"/>
    </edge>
    <edge id=":B1_11" function="internal">
        <lane id=":B1_11_0" index="0" speed="9.26" length="5.01" shape="351.60,360.40 350.89,355.44"/>
    </edge>
    <edge id=":B1_17" function="internal">
        <lane id=":B1_17_0" index="0" speed="9.26" length="14.34" shape="350.89,355.44 350.85,355.15 348.60,351.40 344.85,349.15 339.60,348.40"/>
    </edge>
    <edge id=":B1_12" function="internal">
        <lane id=":B1_12_0" index="0" speed="6.51" length="9.03" shape="339.60,354.80 342.05,355.15 343.80,356.20 344.85,357.95 345.20,360.40"/>
    </edge>
    <edge id=":B1_13" function="internal">
        <lane id=":B1_13_0" index="0" speed="13.89" length="20.80" shape="339.60,354.80 360.40,354.80"/>
        <lane id=":B1_13_1" index="1" speed="13.89" length="20.80" shape="339.60,351.60 360.40,351.60"/>
    </edge>
    <edge id=":B1_15" function="internal">
        <lane id=":B1_15_0" index="0" speed="9.26" length="19.35" shape="339.60,351.60 344.85,350.85 348.60,348.60 350.85,344.85 351.60,339.60"/>
    </edge>
    <edge id=":B2_0" function="internal">
        <lane id=":B2_0_0" index="0" speed="6.51" length="9.03" shape="345.20,689.60 344.85,692.05 343.80,693.80 342.05,694.85 339.60,695.20"/>
    </edge>
    <edge id=":B2_1" function="internal">
        <lane id=":B2_1_0" index="0" speed="13.89" length="20.80" shape="345.20,689.60 345.20,710.40"/>
        <lane id=":B2_1_1" index="1" speed="13.89" length="20.80" shape="348.40,689.60 348.40,710.40"/>
    </edge>
    <edge id=":B2_3" function="internal">
        <lane id=":B2_3_0" index="0" speed="9.26" length="5.01" shape="348.40,689.60 349.11,694.56"/>
    </edge>
    <edge id=":B2_16" function="internal">
        <lane id=":B2_16_0" index="0" speed="9.26" length="14.34" shape="349.11,694.56 349.15,694.85 351.40,698.60 355.15,700.85 360.40,701.60"/>
    </edge>
    <edge id=":B2_4" function="internal">
        <lane id=":B2_4_0" index="0" speed="6.51" length="9.03" shape="360.40,695.20 357.95,694.85 356.20,693.80 355.15,692.05 354.80,689.60"/>
    </edge>
    <edge id=":B2_5" function="internal">
        <lane id=":B2_5_0" index="0" speed="13.89" length="20.80" shape="360.40,695.20 339.60,695.20"/>
        <lane id=":B2_5_1" index="1" speed="13.89" length="20.80" shape="360.40,698.40 339.60,698.40"/>
    </edge>
    <edge id=":B2_7" function="internal">
        <lane id=":B2_7_0" index="0" speed="9.26" length="19.35" shape="360.40,698.40 355.15,699.15 351.40,701.40 349.15,705.15 348.40,710.40"/>
    </edge>
    <edge id=":B2_8" function="internal">
        <lane id=":B2_8_0" index="0" speed="6.51" length="9.03" shape="354.80,710.40 355.15,707.95 356.20,706.20 357.95,705.15 360.40,704.80"/>
    </edge>
    <edge id=":B2_9" function="internal">
        <lane id=":B2_9_0" index="0" speed="13.89" length="20.80" shape="354.80,710.40 354.80,689.60"/>
        <lane id=":B2_9_1" index="1" speed="13.89" length="20.80" shape="351.60,710.40 351.60,689.60"/>
    </edge>
    <edge id=":B2_11" function="internal">
        <lane id=":B2_11_0" index="0" speed="9.26" length="5.01" shape="351.60,710.40 350.89,705.44"/>
    </edge>
    <edge id=":B2_17" function="internal">
        <lane id=":B2_17_0" index="0" speed="9.26" length="14.34" shape="350.89,705.44 350.85,705.15 348.60,701.40 344.85,699.15 339.60,698.40"/>
    </edge>
    <edge id=":B2_12" function="internal">
        <lane id=":B2_12_0" index="0" speed="6.51" length="9.03" shape="339.60,704.80 342.05,705.15 343.80,706.20 344.85,707.95 345.20,710.40"/>
    </edge>
    <edge id=":B2_13" function="internal">
        <lane id=":B2_13_0" index="0" speed="13.89" length="20.80" shape="339.60,704.80 360.40,704.80"/>
        <lane id=":B2_13_1" index="1" speed="13.89" length="20.80" shape="339.60,701.60 360.40,701.60"/>
    </edge>
    <edge id=":B2_15" function="internal">
        <lane id=":B2_15_0" index="0" speed="9.26" length="19.35" shape="339.60,701.60 344.85,700.85 348.60,698.60 350.85,694.85 351.60,689.60"/>
    </edge>
    <edge id=":B3_0" function="internal">
        <lane id=":B3_0_0" index="0" speed="6.51" length="9.03" shape="345.20,1039.60 344.85,1042.05 343.80,1043.80 342.05,1044.85 339.60,1045.20"/>
    </edge>
    <edge id=":B3_1" function="internal">
        <lane id=":B3_1_0" index="0" speed="9.26" length="19.35" shape="348.40,1039.60 349.15,1044.85 351.40,1048.60 355.15,1050.85 360.40,1051.60"/>
    </edge>
    <edge id=":B3_2" function="internal">
        <lane id=":B3_2_0" index="0" speed="6.51" length="9.03" shape="360.40,1045.20 357.95,1044.85 356.20,1043.80 355.15,1042.05 354.80,1039.60"/>
    </edge>
    <edge id=":B3_3" function="internal">
        <lane id=":B3_3_0" index="0" speed="13.89" length="20.80" shape="360.40,1045.20 339.60,1045.20"/>
        <lane id=":B3_3_1" index="1" speed="13.89" length="20.80" shape="360.40,1048.40 339.60,1048.40"/>
    </edge>
    <edge id=":B3_5" function="internal">
        <lane id=":B3_5_0" index="0" speed="13.89" length="20.80" shape="339.60,1054.80 360.40,1054.80"/>
        <lane id=":B3_5_1" index="1" speed="13.89" length="20.80" shape="339.60,1051.60 360.40,1051.60"/>
    </edge>
    <edge id=":B3_7" function="internal">
        <lane id=":B3_7_0" index="0" speed="9.26" length="5.01" shape="339.60,1051.60 344.56,1050.89"/>
    </edge>
    <edge id=":B3_8" function="internal">
        <lane id=":B3_8_0" index="0" speed="9.26" length="14.34" shape="344.56,1050.89 344.85,1050.85 348.60,1048.60 350.85,1044.85 351.60,1039.60"/>
    </edge>
    <edge id=":C0_0" function="internal">
        <lane id=":C0_0_0" index="0" speed="13.89" length="20.80" shape="710.40,-4.80 689.60,-4.80"/>
        <lane id=":C0_0_1" index="1" speed="13.89" length="20.80" shape="710.40,-1.60 689.60,-1.60"/>
    </edge>
    <edge id=":C0_2" function="internal">
        <lane id=":C0_2_0" index="0" speed="9.26" length="5.01" shape="710.40,-1.60 705.44,-0.89"/>
    </edge>
    <edge id=":C0_8" function="internal">
        <lane id=":C0_8_0" index="0" speed="9.26" length="14.34" shape="705.44,-0.89 705.15,-0.85 701.40,1.40 699.15,5.15 698.40,10.40"/>
    </edge>
    <edge id=":C0_3" function="internal">
        <lane id=":C0_3_0" index="0" speed="6.51" length="9.03" shape="704.80,10.40 705.15,7.95 706.20,6.20 707.95,5.15 710.40,4.80"/>
    </edge>
    <edge id=":C0_4" function="internal">
        <lane id=":C0_4_0" index="0" speed="9.26" length="19.35" shape="701.60,10.40 700.85,5.15 698.60,1.40 694.85,-0.85 689.60,-1.60"/>
    </edge>
    <edge id=":C0_5" function="internal">
        <lane id=":C0_5_0" index="0" speed="6.51" length="9.03" shape="689.60,4.80 692.05,5.15 693.80,6.20 694.85,7.95 695.20,10.40"/>
    </edge>
    <edge id=":C0_6" function="internal">
        <lane id=":C0_6_0" index="0" speed="13.89" length="20.80" shape="689.60,4.80 710.40,4.80"/>
        <lane id=":C0_6_1" index="1" speed="13.89" length="20.80" shape="689.60,1.60 710.40,1.60"/>
    </edge>
    <edge id=":C1_0" function="internal">
        <lane id=":C1_0_0" index="0" speed="6.51" length="9.03" shape="695.20,339.60 694.85,342.05 693.80,343.80 692.05,344.85 689.60,345.20"/>
    </edge>
    <edge id=":C1_1" function="internal">
        <lane id=":C1_1_0" index="0" speed="13.89" length="20.80" shape="695.20,339.60 695.20,360.40"/>
        <lane id=":C1_1_1" index="1" speed="13.89" length="20.80" shape="698.40,339.60 698.40,360.40"/>
    </edge>
    <edge id=":C1_3" function="internal">
        <lane id=":C1_3_0" index="0" speed="9.26" length="5.01" shape="698.40,339.60 699.11,344.56"/>
    </edge>
    <edge id=":C1_16" function="internal">
        <lane id=":C1_16_0" index="0" speed="9.26" length="14.34" shape="699.11,344.56 699.15,344.85 701.40,348.60 705.15,350.85 710.40,351.60"/>
    </edge>
    <edge id=":C1_4" function="internal">
        <lane id=":C1_4_0" index="0" speed="6.51" length="9.03" shape="710.40,345.20 707.95,344.85 706.20,343.80 705.15,342.05 704.80,339.60"/>
    </edge>
    <edge id=":C1_5" function="internal">
        <lane id=":C1_5_0" index="0" speed="13.89" length="20.80" shape="710.40,345.20 689.60,345.20"/>
        <lane id=":C1_5_1" index="1" speed="13.89" length="20.80" shape="710.40,348.40 689.60,348.40"/>
    </edge>
    <edge id=":C1_7" function="internal">
        <lane id=":C1_7_0" index="0" speed="9.26" length="19.35" shape="710.40,348.40 705.15,349.15 701.40,351.40 699.15,355.15 698.40,360.40"/>
    </edge>
    <edge id=":C1_8" function="internal">
        <lane id=":C1_8_0" index="0" speed="6.51" length="9.03" shape="704.80,360.40 705.15,357.95 706.20,356.20 707.95,355.15 710.40,354.80"/>
    </edge>
    <edge id=":C1_9" function="internal">
        <lane id=":C1_9_0" index="0" speed="13.89" length="20.80" shape="704.80,360.40 704.80,339.60"/>
        <lane id=":C1_9_1" index="1" speed="13.89" length="20.80" shape="701.60,360.40 701.60,339.60"/>
    </edge>
    <edge id=":C1_11" function="internal">
        <lane id=":C1_11_0" index="0" speed="9.26" length="5.01" shape="701.60,360.40 700.89,355.44"/>
    </edge>
    <edge id=":C1_17" function="internal">
        <lane id=":C1_17_0" index="0" speed="9.26" length="14.34" shape="700.89,355.44 700.85,355.15 698.60,351.40 694.85,349.15 689.60,348.40"/>
    </edge>
    <edge id=":C1_12" function="internal">
        <lane id=":C1_12_0" index="0" speed="6.51" length="9.03" shape="689.60,354.80 692.05,355.15 693.80,356.20 694.85,357.95 695.20,360.40"/>
    </edge>
    <edge id=":C1_13" function="internal">
        <lane id=":C1_13_0" index="0" speed="13.89" length="20.80" shape="689.60,354.80 710.40,354.80"/>
        <lane id=":C1_13_1" index="1" speed="13.89" length="20.80" shape="689.60,351.60 710.40,351.60"/>
    </edge>
    <edge id=":C1_15" function="internal">
        <lane id=":C1_15_0" index="0" speed="9.26" length="19.35" shape="689.60,351.60 694.85,350.85 698.60,348.60 700.85,344.85 701.60,339.60"/>
    </edge>
    <edge id=":C2_0" function="internal">
        <lane id=":C2_0_0" index="0" speed="6.51" length="9.03" shape="695.20,689.60 694.85,692.05 693.80,693.80 692.05,694.85 689.60,695.20"/>
    </edge>
    <edge id=":C2_1" function="internal">
        <lane id=":C2_1_0" index="0" speed="13.89" length="20.80" shape="695.20,689.60 695.20,710.40"/>
        <lane id=":C2_1_1" index="1" speed="13.89" length="20.80" shape="698.40,689.60 698.40,710.40"/>
    </edge>
    <edge id=":C2_3" function="internal">
        <lane id=":C2_3_0" index="0" speed="9.26" length="5.01" shape="698.40,689.60 699.11,694.56"/>
    </edge>
    <edge id=":C2_16" function="internal">
        <lane id=":C2_16_0" index="0" speed="9.26" length="14.34" shape="699.11,694.56 699.15,694.85 701.40,698.60 705.15,700.85 710.40,701.60"/>
    </edge>
    <edge id=":C2_4" function="internal">
        <lane id=":C2_4_0" index="0" speed="6.51" length="9.03" shape="710.40,695.20 707.95,694.85 706.20,693.80 705.15,692.05 704.80,689.60"/>
    </edge>
    <edge id=":C2_5" function="internal">
        <lane id=":C2_5_0" index="0" speed="13.89" length="20.80" shape="710.40,695.20 689.60,695.20"/>
        <lane id=":C2_5_1" index="1" speed="13.89" length="20.80" shape="710.40,698.40 689.60,698.40"/>
    </edge>
    <edge id=":C2_7" function="internal">
        <lane id=":C2_7_0" index="0" speed="9.26" length="19.35" shape="710.40,698.40 705.15,699.15 701.40,701.40 699.15,705.15 698.40,710.40"/>
    </edge>
    <edge id=":C2_8" function="internal">
        <lane id=":C2_8_0" index="0" speed="6.51" length="9.03" shape="704.80,710.40 705.15,707.95 706.20,706.20 707.95,705.15 710.40,704.80"/>
    </edge>
    <edge id=":C2_9" function="internal">
        <lane id=":C2_9_0" index="0" speed="13.89" length="20.80" shape="704.80,710.40 704.80,689.60"/>
        <lane id=":C2_9_1" index="1" speed="13.89" length="20.80" shape="701.60,710.40 701.60,689.60"/>
    </edge>
    <edge id=":C2_11" function="internal">
        <lane id=":C2_11_0" index="0" speed="9.26" length="5.01" shape="701.60,710.40 700.89,705.44"/>
    </edge>
    <edge id=":C2_17" function="internal">
        <lane id=":C2_17_0" index="0" speed="9.26" length="14.34" shape="700.89,705.44 700.85,705.15 698.60,701.40 694.85,699.15 689.60,698.40"/>
    </edge>
    <edge id=":C2_12" function="internal">
        <lane id=":C2_12_0" index="0" speed="6.51" length="9.03" shape="689.60,704.80 692.05,705.15 693.80,706.20 694.85,707.95 695.20,710.40"/>
    </edge>
    <edge id=":C2_13" function="internal">
        <lane id=":C2_13_0" index="0" speed="13.89" length="20.80" shape="689.60,704.80 710.40,704.80"/>
        <lane id=":C2_13_1" index="1" speed="13.89" length="20.80" shape="689.60,701.60 710.40,701.60"/>
    </edge>
    <edge id=":C2_15" function="internal">
        <lane id=":C2_15_0" index="0" speed="9.26" length="19.35" shape="689.60,701.60 694.85,700.85 698.60,698.60 700.85,694.85 701.60,689.60"/>
    </edge>
    <edge id=":C3_0" function="internal">
        <lane id=":C3_0_0" index="0" speed="6.51" length="9.03" shape="695.20,1039.60 694.85,1042.05 693.80,1043.80 692.05,1044.85 689.60,1045.20"/>
    </edge>
    <edge id=":C3_1" function="internal">
        <lane id=":C3_1_0" index="0" speed="9.26" length="19.35" shape="698.40,1039.60 699.15,1044.85 701.40,1048.60 705.15,1050.85 710.40,1051.60"/>
    </edge>
    <edge id=":C3_2" function="internal">
        <lane id=":C3_2_0" index="0" speed="6.51" length="9.03" shape="710.40,1045.20 707.95,1044.85 706.20,1043.80 705.15,1042.05 704.80,1039.60"/>
    </edge>
    <edge id=":C3_3" function="internal">
        <lane id=":C3_3_0" index="0" speed="13.89" length="20.80" shape="710.40,1045.20 689.60,1045.20"/>
        <lane id=":C3_3_1" index="1" speed="13.89" length="20.80" shape="710.40,1048.40 689.60,1048.40"/>
    </edge>
    <edge id=":C3_5" function="internal">
        <lane id=":C3_5_0" index="0" speed="13.89" length="20.80" shape="689.60,1054.80 710.40,1054.80"/>
        <lane id=":C3_5_1" index="1" speed="13.89" length="20.80" shape="689.60,1051.60 710.40,1051.60"/>
    </edge>
    <edge id=":C3_7" function="internal">
        <lane id=":C3_7_0" index="0" speed="9.26" length="5.01" shape="689.60,1051.60 694.56,1050.89"/>
    </edge>
    <edge id=":C3_8" function="internal">
        <lane id=":C3_8_0" index="0" speed="9.26" length="14.34" shape="694.56,1050.89 694.85,1050.85 698.60,1048.60 700.85,1044.85 701.60,1039.60"/>
    </edge>
    <edge id=":D0_0" function="internal">
        <lane id=":D0_0_0" index="0" speed="8.96" length="18.06" shape="1054.80,6.40 1054.10,1.50 1052.00,-2.00 1048.50,-4.10 1043.60,-4.80"/>
        <lane id=":D0_0_1" index="1" speed="7.66" length="12.90" shape="1051.60,6.40 1051.10,2.90 1049.60,0.40 1047.10,-1.10 1043.60,-1.60"/>
    </edge>
    <edge id=":D0_2" function="internal">
        <lane id=":D0_2_0" index="0" speed="3.90" length="2.58" shape="1043.60,4.80 1044.30,4.90 1044.80,5.20 1045.10,5.70 1045.20,6.40"/>
        <lane id=":D0_2_1" index="1" speed="6.08" length="7.74" shape="1043.60,1.60 1045.70,1.90 1047.20,2.80 1048.10,4.30 1048.40,6.40"/>
    </edge>
    <edge id=":D1_0" function="internal">
        <lane id=":D1_0_0" index="0" speed="6.51" length="9.03" shape="1045.20,339.60 1044.85,342.05 1043.80,343.80 1042.05,344.85 1039.60,345.20"/>
    </edge>
    <edge id=":D1_1" function="internal">
        <lane id=":D1_1_0" index="0" speed="13.89" length="20.80" shape="1045.20,339.60 1045.20,360.40"/>
        <lane id=":D1_1_1" index="1" speed="13.89" length="20.80" shape="1048.40,339.60 1048.40,360.40"/>
    </edge>
    <edge id=":D1_3" function="internal">
        <lane id=":D1_3_0" index="0" speed="13.89" length="20.80" shape="1054.80,360.40 1054.80,339.60"/>
        <lane id=":D1_3_1" index="1" speed="13.89" length="20.80" shape="1051.60,360.40 1051.60,339.60"/>
    </edge>
    <edge id=":D1_5" function="internal">
        <lane id=":D1_5_0" index="0" speed="9.26" length="5.01" shape="1051.60,360.40 1050.89,355.44"/>
    </edge>
    <edge id=":D1_8" function="internal">
        <lane id=":D1_8_0" index="0" speed="9.26" length="14.34" shape="1050.89,355.44 1050.85,355.15 1048.60,351.40 1044.85,349.15 1039.60,348.40"/>
    </edge>
    <edge id=":D1_6" function="internal">
        <lane id=":D1_6_0" index="0" speed="6.51" length="9.03" shape="1039.60,354.80 1042.05,355.15 1043.80,356.20 1044.85,357.95 1045.20,360.40"/>
    </edge>
    <edge id=":D1_7" function="internal">
        <lane id=":D1_7_0" index="0" speed="9.26" length="19.35" shape="1039.60,351.60 1044.85,350.85 1048.60,348.60 1050.85,344.85 1051.60,339.60"/>
    </edge>
    <edge id=":D2_0" function="internal">
        <lane id=":D2_0_0" index="0" speed="6.51" length="9.03" shape="1045.20,689.60 1044.85,692.05 1043.80,693.80 1042.05,694.85 1039.60,695.20"/>
    </edge>
    <edge id=":D2_1" function="internal">
        <lane id=":D2_1_0" index="0" speed="13.89" length="20.80" shape="1045.20,689.60 1045.20,710.40"/>
        <lane id=":D2_1_1" index="1" speed="13.89" length="20.80" shape="1048.40,689.60 1048.40,710.40"/>
    </edge>
    <edge id=":D2_3" function="internal">
        <lane id=":D2_3_0" index="0" speed="13.89" length="20.80" shape="1054.80,710.40 1054.80,689.60"/>
        <lane id=":D2_3_1" index="1" speed="13.89" length="20.80" shape="1051.60,710.40 1051.60,689.60"/>
    </edge>
    <edge id=":D2_5" function="internal">
        <lane id=":D2_5_0" index="0" speed="9.26" length="5.01" shape="1051.60,710.40 1050.89,705.44"/>
    </edge>
    <edge id=":D2_8" function="internal">
        <lane id=":D2_8_0" index="0" speed="9.26" length="14.34" shape="1050.89,705.44 1050.85,705.15 1048.60,701.40 1044.85,699.15 1039.60,698.40"/>
    </edge>
    <edge id=":D2_6" function="internal">
        <lane id=":D2_6_0" index="0" speed="6.51" length="9.03" shape="1039.60,704.80 1042.05,705.15 1043.80,706.20 1044.85,707.95 1045.20,710.40"/>
    </edge>
    <edge id=":D2_7" function="internal">
        <lane id=":D2_7_0" index="0" speed="9.26" length="19.35" shape="1039.60,701.60 1044.85,700.85 1048.60,698.60 1050.85,694.85 1051.60,689.60"/>
    </edge>
    <edge id=":D3_0" function="internal">
        <lane id=":D3_0_0" index="0" speed="3.90" length="2.58" shape="1045.20,1043.60 1045.10,1044.30 1044.80,1044.80 1044.30,1045.10 1043.60,1045.20"/>
        <lane id=":D3_0_1" index="1" speed="6.08" length="7.74" shape="1048.40,1043.60 1048.10,1045.70 1047.20,1047.20 1045.70,1048.10 1043.60,1048.40"/>
    </edge>
    <edge id=":D3_2" function="internal">
        <lane id=":D3_2_0" index="0" speed="8.96" length="18.06" shape="1043.60,1054.80 1048.50,1054.10 1052.00,1052.00 1054.10,1048.50 1054.80,1043.60"/>
        <lane id=":D3_2_1" index="1" speed="7.66" length="12.90" shape="1043.60,1051.60 1047.10,1051.10 1049.60,1049.60 1051.10,1047.10 1051.60,1043.60"/>
    </edge>

    <edge id="A0A1" from="A0" to="A1" priority="-1">
        <lane id="A0A1_0" index="0" speed="13.89" length="333.20" shape="-4.80,6.40 -4.80,339.60"/>
        <lane id="A0A1_1" index="1" speed="13.89" length="333.20" shape="-1.60,6.40 -1.60,339.60"/>
    </edge>
    <edge id="A0B0" from="A0" to="B0" priority="-1">
        <lane id="A0B0_0" index="0" speed="13.89" length="333.20" shape="6.40,4.80 339.60,4.80"/>
        <lane id="A0B0_1" index="1" speed="13.89" length="333.20" shape="6.40,1.60 339.60,1.60"/>
    </edge>
    <edge id="A1A0" from="A1" to="A0" priority="-1">
        <lane id="A1A0_0" index="0" speed="13.89" length="333.20" shape="4.80,339.60 4.80,6.40"/>
        <lane id="A1A0_1" index="1" speed="13.89" length="333.20" shape="1.60,339.60 1.60,6.40"/>
    </edge>
    <edge id="A1A2" from="A1" to="A2" priority="-1">
        <lane id="A1A2_0" index="0" speed="13.89" length="329.20" shape="-4.80,360.40 -4.80,689.60"/>
        <lane id="A1A2_1" index="1" speed="13.89" length="329.20" shape="-1.60,360.40 -1.60,689.60"/>
    </edge>
    <edge id="A1B1" from="A1" to="B1" priority="-1">
        <lane id="A1B1_0" index="0" speed="13.89" length="329.20" shape="10.40,354.80 339.60,354.80"/>
        <lane id="A1B1_1" index="1" speed="13.89" length="329.20" shape="10.40,351.60 339.60,351.60"/>
    </edge>
    <edge id="A2A1" from="A2" to="A1" priority="-1">
        <lane id="A2A1_0" index="0" speed="13.89" length="329.20" shape="4.80,689.60 4.80,360.40"/>
        <lane id="A2A1_1" index="1" speed="13.89" length="329.20" shape="1.60,689.60 1.60,360.40"/>
    </edge>
    <edge id="A2A3" from="A2" to="A3" priority="-1">
        <lane id="A2A3_0" index="0" speed="13.89" length="333.20" shape="-4.80,710.40 -4.80,1043.60"/>
        <lane id="A2A3_1" index="1" speed="13.89" length="333.20" shape="-1.60,710.40 -1.60,1043.60"/>
    </edge>
    <edge id="A2B2" from="A2" to="B2" priority="-1">
        <lane id="A2B2_0" index="0" speed="13.89" length="329.20" shape="10.40,704.80 339.60,704.80"/>
        <lane id="A2B2_1" index="1" speed="13.89" length="329.20" shape="10.40,701.60 339.60,701.60"/>
    </edge>
    <edge id="A3A2" from="A3" to="A2" priority="-1">
        <lane id="A3A2_0" index="0" speed="13.89" length="333.20" shape="4.80,1043.60 4.80,710.40"/>
        <lane id="A3A2_1" index="1" speed="13.89" length="333.20" shape="1.60,1043.60 1.60,710.40"/>
    </edge>
    <edge id="A3B3" from="A3" to="B3" priority="-1">
        <lane id="A3B3_0" index="0" speed="13.89" length="333.20" shape="6.40,1054.80 339.60,1054.80"/>