<?xml version="1.0" encoding="UTF-8"?>

<!-- generated on 2026-01-24T19:21:57.469494+08:00 by Eclipse SUMO netconvert 1.25.0
<netconvertConfiguration xmlns:xsi="http://www.w3.org/2001/XMLSchema-instance" xsi:noNamespaceSchemaLocation="http://sumo.dlr.de/xsd/netconvertConfiguration.xsd">

    <input>
        <sumo-net-file value="bus_4x4_350.net.xml"/>
    </input>

    <output>
        <output-file value="bus_4x4_staticTLS.net.xml"/>
    </output>

    <processing>
        <geometry.min-radius.fix.railways value="false"/>
        <geometry.avoid-overlap value="false"/>
        <geometry.max-grade.fix value="false"/>
        <offset.disable-normalization value="true"/>
        <lefthand value="1"/>
    </processing>

    <tls_building>
        <tls.guess value="true"/>
        <tls.cycle.time value="90"/>
        <tls.default-type value="static"/>
    </tls_building>

    <junctions>
        <no-turnarounds value="true"/>
        <junctions.corner-detail value="5"/>
        <junctions.limit-turn-speed value="5.50"/>
        <rectangular-lane-cut value="0"/>
    </junctions>

    <pedestrian>
        <sidewalks.guess value="true"/>
        <crossings.guess value="true"/>
        <walkingareas value="0"/>
    </pedestrian>

</netconvertConfiguration>
-->

<net version="1.20" junctionCornerDetail="5" walkingareas="true" lefthand="true" limitTurnSpeed="5.50" avoidOverlap="0" xmlns:xsi="http://www.w3.org/2001/XMLSchema-instance" xsi:noNamespaceSchemaLocation="http://sumo.dlr.de/xsd/net_file.xsd">

    <location netOffset="0.00,-0.00" convBoundary="0.00,0.00,1050.00,1050.00" origBoundary="0.00,0.00,1050.00,1050.00" projParameter="!"/>

    <edge id=":A0_0" function="internal">
        <lane id=":A0_0_0" index="0" disallow="pedestrian" speed="9.69" length="21.29" shape="8.40,-4.80 2.63,-3.97 -1.50,-1.50 -3.97,2.63 -4.80,8.40"/>
        <lane id=":A0_0_1" index="1" disallow="pedestrian" speed="8.49" length="16.13" shape="8.40,-1.60 4.03,-0.97 0.90,0.90 -0.97,4.03 -1.60,8.40"/>
    </edge>
    <edge id=":A0_2" function="internal">
        <lane id=":A0_2_0" index="0" disallow="pedestrian" speed="5.37" length="5.81" shape="4.80,8.40 5.03,6.83 5.70,5.70 6.83,5.02 8.40,4.80"/>
        <lane id=":A0_2_1" index="1" disallow="pedestrian" speed="7.10" length="6.77" shape="1.60,8.40 2.03,5.43 3.30,3.30 4.40,2.64"/>
    </edge>
    <edge id=":A0_4" function="internal">
        <lane id=":A0_4_0" index="0" disallow="pedestrian" speed="7.10" length="4.20" shape="4.40,2.64 5.43,2.02 8.40,1.60"/>
    </edge>
    <edge id=":A0_c0" function="crossing" crossingEdges="A0B0 B0A0">
        <lane id=":A0_c0_0" index="0" allow="pedestrian" speed="2.78" length="12.80" width="4.00" shape="6.40,6.40 6.40,-6.40" outlineShape="8.40,-6.50 8.40,6.40 4.40,8.04 8.40,8.40 8.40,6.40 4.40,6.40 4.40,-6.40 6.40,-8.40 6.46,-7.79 6.62,-7.29 6.90,-6.90 7.29,-6.62 7.79,-6.46"/>
    </edge>
    <edge id=":A0_w0" function="walkingarea">
        <lane id=":A0_w0_0" index="0" allow="pedestrian" speed="2.78" length="14.94" width="4.00" shape="-6.40,8.40 -8.40,8.40 -7.93,3.27 -6.53,-0.93 -4.20,-4.20 -0.93,-6.53 3.27,-7.93 8.40,-8.40 8.40,-6.40 3.88,-5.99 0.18,-4.76 -2.70,-2.70 -4.76,0.18 -5.99,3.88"/>
    </edge>
    <edge id=":A0_w1" function="walkingarea">
        <lane id=":A0_w1_0" index="0" allow="pedestrian" speed="2.78" length="1.96" width="4.00" shape="8.40,6.40 8.40,8.40 6.40,8.40 6.46,7.79 6.62,7.29 6.90,6.90 7.29,6.62 7.79,6.46"/>
    </edge>
    <edge id=":A1_0" function="internal">
        <lane id=":A1_0_0" index="0" disallow="pedestrian" speed="13.89" length="20.80" shape="-4.80,339.60 -4.80,360.40"/>
        <lane id=":A1_0_1" index="1" disallow="pedestrian" speed="13.89" length="20.80" shape="-1.60,339.60 -1.60,360.40"/>
    </edge>
    <edge id=":A1_2" function="internal">
        <lane id=":A1_2_0" index="0" disallow="pedestrian" speed="9.26" length="5.01" shape="-1.60,339.60 -0.89,344.56"/>
    </edge>
    <edge id=":A1_8" function="internal">
        <lane id=":A1_8_0" index="0" disallow="pedestrian" speed="9.26" length="14.34" shape="-0.89,344.56 -0.85,344.85 1.40,348.60 5.15,350.85 10.40,351.60"/>
    </edge>
    <edge id=":A1_3" function="internal">
        <lane id=":A1_3_0" index="0" disallow="pedestrian" speed="6.51" length="4.75" shape="10.40,345.20 7.95,344.85 6.20,343.80 6.08,343.60"/>
    </edge>
    <edge id=":A1_4" function="internal">
        <lane id=":A1_4_0" index="0" disallow="pedestrian" speed="9.26" length="15.31" shape="10.40,348.40 5.15,349.15 1.40,351.40 -0.85,355.15 -1.03,356.40"/>
    </edge>
    <edge id=":A1_9" function="internal">
        <lane id=":A1_9_0" index="0" disallow="pedestrian" speed="6.51" length="4.28" shape="6.08,343.60 5.15,342.05 4.80,339.60"/>
    </edge>
    <edge id=":A1_10" function="internal">
        <lane id=":A1_10_0" index="0" disallow="pedestrian" speed="9.26" length="4.04" shape="-1.03,356.40 -1.60,360.40"/>
    </edge>
    <edge id=":A1_5" function="internal">
        <lane id=":A1_5_0" index="0" disallow="pedestrian" speed="6.51" length="4.75" shape="4.80,360.40 5.15,357.95 6.20,356.20 6.40,356.08"/>
    </edge>
    <edge id=":A1_6" function="internal">
        <lane id=":A1_6_0" index="0" disallow="pedestrian" speed="13.89" length="20.80" shape="4.80,360.40 4.80,339.60"/>
        <lane id=":A1_6_1" index="1" disallow="pedestrian" speed="13.89" length="20.80" shape="1.60,360.40 1.60,339.60"/>
    </edge>
    <edge id=":A1_11" function="internal">
        <lane id=":A1_11_0" index="0" disallow="pedestrian" speed="6.51" length="4.28" shape="6.40,356.08 7.95,355.15 10.40,354.80"/>
    </edge>
    <edge id=":A1_c0" function="crossing" crossingEdges="A1A0 A0A1">
        <lane id=":A1_c0_0" index="0" allow="pedestrian" speed="2.78" length="12.80" width="4.00" shape="6.40,341.60 -6.40,341.60" outlineShape="6.50,-339.60 -6.50,-339.60 -6.40,-343.60 10.40,-343.60 9.18,-343.49 8.18,-343.16 7.40,-342.60 6.84,-341.82 6.51,-340.82"/>
    </edge>
    <edge id=":A1_c1" function="crossing" crossingEdges="A1B1 B1A1">
        <lane id=":A1_c1_0" index="0" allow="pedestrian" speed="2.78" length="12.80" width="4.00" shape="8.40,356.40 8.40,343.60" outlineShape="10.40,-356.40 10.40,-343.50 10.40,-343.40 10.40,-343.60 9.18,-343.49 8.18,-343.16 7.40,-342.60 6.84,-341.82 6.73,-341.49 6.40,-343.60 6.40,-356.40 6.73,-358.51 6.84,-358.18 7.40,-357.40 8.18,-356.84 9.18,-356.51"/>
    </edge>
    <edge id=":A1_c2" function="crossing" crossingEdges="A1A2 A2A1">
        <lane id=":A1_c2_0" index="0" allow="pedestrian" speed="2.78" length="12.80" width="4.00" shape="-6.40,358.40 6.40,358.40" outlineShape="-6.50,-360.40 6.50,-360.40 10.40,-356.40 10.40,-358.40 8.40,-360.40 6.40,-360.40 10.40,-356.40 -6.40,-356.40"/>
    </edge>
    <edge id=":A1_w0" function="walkingarea">
        <lane id=":A1_w0_0" index="0" allow="pedestrian" speed="2.78" length="13.29" width="4.00" shape="-6.40,356.40 -6.40,360.40 -8.40,360.40 -8.40,339.60 -6.40,339.60 -6.40,343.60"/>
    </edge>
    <edge id=":A1_w1" function="walkingarea">
        <lane id=":A1_w1_0" index="0" allow="pedestrian" speed="2.78" length="3.30" width="4.00" shape="6.40,339.60 8.40,339.60 10.40,341.60 10.40,343.60 9.18,343.49 8.18,343.16 7.40,342.60 6.84,341.82 6.51,340.82"/>
    </edge>
    <edge id=":A1_w2" function="walkingarea">
        <lane id=":A1_w2_0" index="0" allow="pedestrian" speed="2.78" length="3.30" width="4.00" shape="10.40,356.40 10.40,358.40 8.40,360.40 6.40,360.40 6.51,359.18 6.84,358.18 7.40,357.40 8.18,356.84 9.18,356.51"/>
    </edge>
    <edge id=":A2_0" function="internal">
        <lane id=":A2_0_0" index="0" disallow="pedestrian" speed="13.89" length="20.80" shape="-4.80,689.60 -4.80,710.40"/>
        <lane id=":A2_0_1" index="1" disallow="pedestrian" speed="13.89" length="20.80" shape="-1.60,689.60 -1.60,710.40"/>
    </edge>
    <edge id=":A2_2" function="internal">
        <lane id=":A2_2_0" index="0" disallow="pedestrian" speed="9.26" length="5.01" shape="-1.60,689.60 -0.89,694.56"/>
    </edge>
    <edge id=":A2_8" function="internal">
        <lane id=":A2_8_0" index="0" disallow="pedestrian" speed="9.26" length="14.34" shape="-0.89,694.56 -0.85,694.85 1.40,698.60 5.15,700.85 10.40,701.60"/>
    </edge>
    <edge id=":A2_3" function="internal">
        <lane id=":A2_3_0" index="0" disallow="pedestrian" speed="6.51" length="4.75" shape="10.40,695.20 7.95,694.85 6.20,693.80 6.08,693.60"/>
    </edge>
    <edge id=":A2_4" function="internal">
        <lane id=":A2_4_0" index="0" disallow="pedestrian" speed="9.26" length="15.31" shape="10.40,698.40 5.15,699.15 1.40,701.40 -0.85,705.15 -1.03,706.40"/>
    </edge>
    <edge id=":A2_9" function="internal">
        <lane id=":A2_9_0" index="0" disallow="pedestrian" speed="6.51" length="4.28" shape="6.08,693.60 5.15,692.05 4.80,689.60"/>
    </edge>
    <edge id=":A2_10" function="internal">
        <lane id=":A2_10_0" index="0" disallow="pedestrian" speed="9.26" length="4.04" shape="-1.03,706.40 -1.60,710.40"/>
    </edge>
    <edge id=":A2_5" function="internal">
        <lane id=":A2_5_0" index="0" disallow="pedestrian" speed="6.51" length="4.75" shape="4.80,710.40 5.15,707.95 6.20,706.20 6.40,706.08"/>
    </edge>
    <edge id=":A2_6" function="internal">
        <lane id=":A2_6_0" index="0" disallow="pedestrian" speed="13.89" length="20.80" shape="4.80,710.40 4.80,689.60"/>
        <lane id=":A2_6_1" index="1" disallow="pedestrian" speed="13.89" length="20.80" shape="1.60,710.40 1.60,689.60"/>
    </edge>
    <edge id=":A2_11" function="internal">
        <lane id=":A2_11_0" index="0" disallow="pedestrian" speed="6.51" length="4.28" shape="6.40,706.08 7.95,705.15 10.40,704.80"/>
    </edge>
    <edge id=":A2_c0" function="crossing" crossingEdges="A2A1 A1A2">
        <lane id=":A2_c0_0" index="0" allow="pedestrian" speed="2.78" length="12.80" width="4.00" shape="6.40,691.60 -6.40,691.60" outlineShape="6.50,-689.60 -6.50,-689.60 -6.40,-693.60 10.40,-693.60 9.18,-693.49 8.18,-693.16 7.40,-692.60 6.84,-691.82 6.51,-690.82"/>
    </edge>
    <edge id=":A2_c1" function="crossing" crossingEdges="A2B2 B2A2">
        <lane id=":A2_c1_0" index="0" allow="pedestrian" speed="2.78" length="12.80" width="4.00" shape="8.40,706.40 8.40,693.60" outlineShape="10.40,-706.40 10.40,-693.50 10.40,-693.40 10.40,-693.60 9.18,-693.49 8.18,-693.16 7.40,-692.60 6.84,-691.82 6.73,-691.49 6.40,-693.60 6.40,-706.40 6.73,-708.51 6.84,-708.18 7.40,-707.40 8.18,-706.84 9.18,-706.51"/>
    </edge>
    <edge id=":A2_c2" function="crossing" crossingEdges="A2A3 A3A2">
        <lane id=":A2_c2_0" index="0" allow="pedestrian" speed="2.78" length="12.80" width="4.00" shape="-6.40,708.40 6.40,708.40" outlineShape="-6.50,-710.40 6.50,-710.40 10.40,-706.40 10.40,-708.40 8.40,-710.40 6.40,-710.40 10.40,-706.40 -6.40,-706.40"/>
    </edge>
    <edge id=":A2_w0" function="walkingarea">
        <lane id=":A2_w0_0" index="0" allow="pedestrian" speed="2.78" length="13.29" width="4.00" shape="-6.40,706.40 -6.40,710.40 -8.40,710.40 -8.40,689.60 -6.40,689.60 -6.40,693.60"/>
    </edge>
    <edge id=":A2_w1" function="walkingarea">
        <lane id=":A2_w1_0" index="0" allow="pedestrian" speed="2.78" length="3.30" width="4.00" shape="6.40,689.60 8.40,689.60 10.40,691.60 10.40,693.60 9.18,693.49 8.18,693.16 7.40,692.60 6.84,691.82 6.51,690.82"/>
    </edge>
    <edge id=":A2_w2" function="walkingarea">
        <lane id=":A2_w2_0" index="0" allow="pedestrian" speed="2.78" length="3.30" width="4.00" shape="10.40,706.40 10.40,708.40 8.40,710.40 6.40,710.40 6.51,709.18 6.84,708.18 7.40,707.40 8.18,706.84 9.18,706.51"/>
    </edge>
    <edge id=":A3_0" function="internal">
        <lane id=":A3_0_0" index="0" disallow="pedestrian" speed="9.69" length="21.29" shape="-4.80,1041.60 -3.97,1047.38 -1.50,1051.50 2.63,1053.97 8.40,1054.80"/>
        <lane id=":A3_0_1" index="1" disallow="pedestrian" speed="8.49" length="16.13" shape="-1.60,1041.60 -0.97,1045.97 0.90,1049.10 4.03,1050.97 8.40,1051.60"/>
    </edge>
    <edge id=":A3_2" function="internal">
        <lane id=":A3_2_0" index="0" disallow="pedestrian" speed="5.37" length="5.81" shape="8.40,1045.20 6.83,1044.98 5.70,1044.30 5.02,1043.17 4.80,1041.60"/>
        <lane id=":A3_2_1" index="1" disallow="pedestrian" speed="7.10" length="6.77" shape="8.40,1048.40 5.43,1047.97 3.30,1046.70 2.64,1045.60"/>
    </edge>
    <edge id=":A3_4" function="internal">
        <lane id=":A3_4_0" index="0" disallow="pedestrian" speed="7.10" length="4.20" shape="2.64,1045.60 2.02,1044.58 1.60,1041.60"/>
    </edge>
    <edge id=":A3_c0" function="crossing" crossingEdges="A3A2 A2A3">
        <lane id=":A3_c0_0" index="0" allow="pedestrian" speed="2.78" length="12.80" width="4.00" shape="6.40,1043.60 -6.40,1043.60" outlineShape="6.50,-1041.60 -6.50,-1041.60 -8.04,-1045.60 -8.40,-1041.60 -6.40,-1041.60 -6.40,-1045.60 6.40,-1045.60 8.40,-1043.60 7.79,-1043.54 7.29,-1043.38 6.90,-1043.10 6.62,-1042.71 6.46,-1042.21"/>
    </edge>
    <edge id=":A3_w0" function="walkingarea">
        <lane id=":A3_w0_0" index="0" allow="pedestrian" speed="2.78" length="14.94" width="4.00" shape="8.40,1056.40 8.40,1058.40 3.27,1057.93 -0.93,1056.53 -4.20,1054.20 -6.53,1050.93 -7.93,1046.73 -8.40,1041.60 -6.40,1041.60 -5.99,1046.12 -4.76,1049.82 -2.70,1052.70 0.18,1054.76 3.88,1055.99"/>
    </edge>
    <edge id=":A3_w1" function="walkingarea">
        <lane id=":A3_w1_0" index="0" allow="pedestrian" speed="2.78" length="1.96" width="4.00" shape="6.40,1041.60 8.40,1041.60 8.40,1043.60 7.79,1043.54 7.29,1043.38 6.90,1043.10 6.62,1042.71 6.46,1042.21"/>
    </edge>
    <edge id=":B0_0" function="internal">
        <lane id=":B0_0_0" index="0" disallow="pedestrian" speed="13.89" length="20.80" shape="360.40,-4.80 339.60,-4.80"/>
        <lane id=":B0_0_1" index="1" disallow="pedestrian" speed="13.89" length="20.80" shape="360.40,-1.60 339.60,-1.60"/>
    </edge>
    <edge id=":B0_2" function="internal">
        <lane id=":B0_2_0" index="0" disallow="pedestrian" speed="9.26" length="5.01" shape="360.40,-1.60 355.44,-0.89"/>
    </edge>
    <edge id=":B0_8" function="internal">
        <lane id=":B0_8_0" index="0" disallow="pedestrian" speed="9.26" length="14.34" shape="355.44,-0.89 355.15,-0.85 351.40,1.40 349.15,5.15 348.40,10.40"/>
    </edge>
    <edge id=":B0_3" function="internal">
        <lane id=":B0_3_0" index="0" disallow="pedestrian" speed="6.51" length="4.75" shape="354.80,10.40 355.15,7.95 356.20,6.20 356.40,6.08"/>
    </edge>
    <edge id=":B0_4" function="internal">
        <lane id=":B0_4_0" index="0" disallow="pedestrian" speed="9.26" length="15.31" shape="351.60,10.40 350.85,5.15 348.60,1.40 344.85,-0.85 343.60,-1.03"/>
    </edge>
    <edge id=":B0_9" function="internal">
        <lane id=":B0_9_0" index="0" disallow="pedestrian" speed="6.51" length="4.28" shape="356.40,6.08 357.95,5.15 360.40,4.80"/>
    </edge>
    <edge id=":B0_10" function="internal">
        <lane id=":B0_10_0" index="0" disallow="pedestrian" speed="9.26" length="4.04" shape="343.60,-1.03 339.60,-1.60"/>
    </edge>
    <edge id=":B0_5" function="internal">
        <lane id=":B0_5_0" index="0" disallow="pedestrian" speed="6.51" length="4.75" shape="339.60,4.80 342.05,5.15 343.80,6.20 343.92,6.40"/>
    </edge>
    <edge id=":B0_6" function="internal">
        <lane id=":B0_6_0" index="0" disallow="pedestrian" speed="13.89" length="20.80" shape="339.60,4.80 360.40,4.80"/>
        <lane id=":B0_6_1" index="1" disallow="pedestrian" speed="13.89" length="20.80" shape="339.60,1.60 360.40,1.60"/>
    </edge>
    <edge id=":B0_11" function="internal">
        <lane id=":B0_11_0" index="0" disallow="pedestrian" speed="6.51" length="4.28" shape="343.92,6.40 344.85,7.95 345.20,10.40"/>
    </edge>
    <edge id=":B0_c0" function="crossing" crossingEdges="B0C0 C0B0">
        <lane id=":B0_c0_0" index="0" allow="pedestrian" speed="2.78" length="12.80" width="4.00" shape="358.40,6.40 358.40,-6.40" outlineShape="360.40,-6.50 360.40,6.50 356.40,6.40 356.40,-10.40 356.51,-9.18 356.84,-8.18 357.40,-7.40 358.18,-6.84 359.18,-6.51"/>
    </edge>
    <edge id=":B0_c1" function="crossing" crossingEdges="B0B1 B1B0">
        <lane id=":B0_c1_0" index="0" allow="pedestrian" speed="2.78" length="12.80" width="4.00" shape="343.60,8.40 356.40,8.40" outlineShape="343.60,-10.40 356.50,-10.40 356.60,-10.40 356.40,-10.40 356.51,-9.18 356.84,-8.18 357.40,-7.40 358.18,-6.84 358.51,-6.73 356.40,-6.40 343.60,-6.40 341.49,-6.73 341.82,-6.84 342.60,-7.40 343.16,-8.18 343.49,-9.18"/>
    </edge>
    <edge id=":B0_c2" function="crossing" crossingEdges="B0A0 A0B0">
        <lane id=":B0_c2_0" index="0" allow="pedestrian" speed="2.78" length="12.80" width="4.00" shape="341.60,-6.40 341.60,6.40" outlineShape="339.60,6.50 339.60,-6.50 343.60,-10.40 341.60,-10.40 339.60,-8.40 339.60,-6.40 343.60,-10.40 343.60,6.40"/>
    </edge>
    <edge id=":B0_w0" function="walkingarea">
        <lane id=":B0_w0_0" index="0" allow="pedestrian" speed="2.78" length="13.29" width="4.00" shape="343.60,-6.40 339.60,-6.40 339.60,-8.40 360.40,-8.40 360.40,-6.40 356.40,-6.40"/>
    </edge>
    <edge id=":B0_w1" function="walkingarea">
        <lane id=":B0_w1_0" index="0" allow="pedestrian" speed="2.78" length="3.30" width="4.00" shape="360.40,6.40 360.40,8.40 358.40,10.40 356.40,10.40 356.51,9.18 356.84,8.18 357.40,7.40 358.18,6.84 359.18,6.51"/>
    </edge>
    <edge id=":B0_w2" function="walkingarea">
        <lane id=":B0_w2_0" index="0" allow="pedestrian" speed="2.78" length="3.30" width="4.00" shape="343.60,10.40 341.60,10.40 339.60,8.40 339.60,6.40 340.82,6.51 341.82,6.84 342.60,7.40 343.16,8.18 343.49,9.18"/>
    </edge>
    <edge id=":B1_0" function="internal">
        <lane id=":B1_0_0" index="0" disallow="pedestrian" speed="6.51" length="4.75" shape="345.20,339.60 344.85,342.05 343.80,343.80 343.60,343.92"/>
    </edge>
    <edge id=":B1_1" function="internal">
        <lane id=":B1_1_0" index="0" disallow="pedestrian" speed="13.89" length="20.80" shape="345.20,339.60 345.20,360.40"/>
        <lane id=":B1_1_1" index="1" disallow="pedestrian" speed="13.89" length="20.80" shape="348.40,339.60 348.40,360.40"/>
    </edge>
    <edge id=":B1_3" function="internal">
        <lane id=":B1_3_0" index="0" disallow="pedestrian" speed="9.26" length="5.01" shape="348.40,339.60 349.11,344.56"/>
    </edge>
    <edge id=":B1_16" function="internal">
        <lane id=":B1_16_0" index="0" disallow="pedestrian" speed="6.51" length="4.28" shape="343.60,343.92 342.05,344.85 339.60,345.20"/>
    </edge>
    <edge id=":B1_17" function="internal">
        <lane id=":B1_17_0" index="0" disallow="pedestrian" speed="9.26" length="14.34" shape="349.11,344.56 349.15,344.85 351.40,348.60 355.15,350.85 360.40,351.60"/>
    </edge>
    <edge id=":B1_4" function="internal">
        <lane id=":B1_4_0" index="0" disallow="pedestrian" speed="6.51" length="4.75" shape="360.40,345.20 357.95,344.85 356.20,343.80 356.08,343.60"/>
    </edge>
    <edge id=":B1_5" function="internal">
        <lane id=":B1_5_0" index="0" disallow="pedestrian" speed="13.89" length="20.80" shape="360.40,345.20 339.60,345.20"/>
        <lane id=":B1_5_1" index="1" disallow="pedestrian" speed="13.89" length="20.80" shape="360.40,348.40 339.60,348.40"/>
    </edge>
    <edge id=":B1_7" function="internal">
        <lane id=":B1_7_0" index="0" disallow="pedestrian" speed="9.26" length="5.01" shape="360.40,348.40 355.44,349.11"/>
    </edge>
    <edge id=":B1_18" function="internal">
        <lane id=":B1_18_0" index="0" disallow="pedestrian" speed="6.51" length="4.28" shape="356.08,343.60 355.15,342.05 354.80,339.60"/>
    </edge>
    <edge id=":B1_19" function="internal">
        <lane id=":B1_19_0" index="0" disallow="pedestrian" speed="9.26" length="14.34" shape="355.44,349.11 355.15,349.15 351.40,351.40 349.15,355.15 348.40,360.40"/>
    </edge>
    <edge id=":B1_8" function="internal">
        <lane id=":B1_8_0" index="0" disallow="pedestrian" speed="6.51" length="4.75" shape="354.80,360.40 355.15,357.95 356.20,356.20 356.40,356.08"/>
    </edge>
    <edge id=":B1_9" function="internal">
        <lane id=":B1_9_0" index="0" disallow="pedestrian" speed="13.89" length="20.80" shape="354.80,360.40 354.80,339.60"/>
        <lane id=":B1_9_1" index="1" disallow="pedestrian" speed="13.89" length="20.80" shape="351.60,360.40 351.60,339.60"/>
    </edge>
    <edge id=":B1_11" function="internal">
        <lane id=":B1_11_0" index="0" disallow="pedestrian" speed="9.26" length="5.01" shape="351.60,360.40 350.89,355.44"/>
    </edge>
    <edge id=":B1_20" function="internal">
        <lane id=":B1_20_0" index="0" disallow="pedestrian" speed="6.51" length="4.28" shape="356.40,356.08 357.95,355.15 360.40,354.80"/>
    </edge>
    <edge id=":B1_21" function="internal">
        <lane id=":B1_21_0" index="0" disallow="pedestrian" speed="9.26" length="14.34" shape="350.89,355.44 350.85,355.15 348.60,351.40 344.85,349.15 339.60,348.40"/>
    </edge>
    <edge id=":B1_12" function="internal">
        <lane id=":B1_12_0" index="0" disallow="pedestrian" speed="6.51" length="4.75" shape="339.60,354.80 342.05,355.15 343.80,356.20 343.92,356.40"/>
    </edge>
    <edge id=":B1_13" function="internal">
        <lane id=":B1_13_0" index="0" disallow="pedestrian" speed="13.89" length="20.80" shape="339.60,354.80 360.40,354.80"/>
        <lane id=":B1_13_1" index="1" disallow="pedestrian" speed="13.89" length="20.80" shape="339.60,351.60 360.40,351.60"/>
    </edge>
    <edge id=":B1_15" function="internal">
        <lane id=":B1_15_0" index="0" disallow="pedestrian" speed="9.26" length="5.01" shape="339.60,351.60 344.56,350.89"/>
    </edge>
    <edge id=":B1_22" function="internal">
        <lane id=":B1_22_0" index="0" disallow="pedestrian" speed="6.51" length="4.28" shape="343.92,356.40 344.85,357.95 345.20,360.40"/>
    </edge>
    <edge id=":B1_23" function="internal">
        <lane id=":B1_23_0" index="0" disallow="pedestrian" speed="9.26" length="14.34" shape="344.56,350.89 344.85,350.85 348.60,348.60 350.85,344.85 351.60,339.60"/>
    </edge>
    <edge id=":B1_c0" function="crossing" crossingEdges="B1B0 B0B1">
        <lane id=":B1_c0_0" index="0" allow="pedestrian" speed="2.78" length="12.80" width="4.00" shape="356.40,341.60 343.60,341.60" outlineShape="356.40,-339.60 343.60,-339.60 339.60,-343.60 339.60,-341.60 341.60,-339.60 343.60,-339.60 339.60,-343.60 360.40,-343.60 359.18,-343.49 358.18,-343.16 357.40,-342.60 356.84,-341.82 356.51,-340.82"/>
    </edge>
    <edge id=":B1_c1" function="crossing" crossingEdges="B1C1 C1B1">
        <lane id=":B1_c1_0" index="0" allow="pedestrian" speed="2.78" length="12.80" width="4.00" shape="358.40,356.40 358.40,343.60" outlineShape="360.40,-356.40 360.40,-343.60 356.40,-339.60 358.40,-339.60 360.40,-341.60 360.40,-343.60 356.40,-339.60 356.40,-360.40 356.51,-359.18 356.84,-358.18 357.40,-357.40 358.18,-356.84 359.18,-356.51"/>
    </edge>
    <edge id=":B1_c2" function="crossing" crossingEdges="B1B2 B2B1">
        <lane id=":B1_c2_0" index="0" allow="pedestrian" speed="2.78" length="12.80" width="4.00" shape="343.60,358.40 356.40,358.40" outlineShape="343.60,-360.40 356.40,-360.40 360.40,-356.40 360.40,-358.40 358.40,-360.40 356.40,-360.40 360.40,-356.40 339.60,-356.40 340.82,-356.51 341.82,-356.84 342.60,-357.40 343.16,-358.18 343.49,-359.18"/>
    </edge>
    <edge id=":B1_c3" function="crossing" crossingEdges="B1A1 A1B1">
        <lane id=":B1_c3_0" index="0" allow="pedestrian" speed="2.78" length="12.80" width="4.00" shape="341.60,343.60 341.60,356.40" outlineShape="339.60,-343.60 339.60,-356.40 343.60,-360.40 341.60,-360.40 339.60,-358.40 339.60,-356.40 343.60,-360.40 343.60,-339.60 343.49,-340.82 343.16,-341.82 342.60,-342.60 341.82,-343.16 340.82,-343.49"/>
    </edge>
    <edge id=":B1_w0" function="walkingarea">
        <lane id=":B1_w0_0" index="0" allow="pedestrian" speed="2.78" length="3.30" width="4.00" shape="339.60,343.60 339.60,341.60 341.60,339.60 343.60,339.60 343.49,340.82 343.16,341.82 342.60,342.60 341.82,343.16 340.82,343.49"/>
    </edge>
    <edge id=":B1_w1" function="walkingarea">
        <lane id=":B1_w1_0" index="0" allow="pedestrian" speed="2.78" length="3.30" width="4.00" shape="356.40,339.60 358.40,339.60 360.40,341.60 360.40,343.60 359.18,343.49 358.18,343.16 357.40,342.60 356.84,341.82 356.51,340.82"/>
    </edge>
    <edge id=":B1_w2" function="walkingarea">
        <lane id=":B1_w2_0" index="0" allow="pedestrian" speed="2.78" length="3.30" width="4.00" shape="360.40,356.40 360.40,358.40 358.40,360.40 356.40,360.40 356.51,359.18 356.84,358.18 357.40,357.40 358.18,356.84 359.18,356.51"/>
    </edge>
    <edge id=":B1_w3" function="walkingarea">
        <lane id=":B1_w3_0" index="0" allow="pedestrian" speed="2.78" length="3.30" width="4.00" shape="343.60,360.40 341.60,360.40 339.60,358.40 339.60,356.40 340.82,356.51 341.82,356.84 342.60,357.40 343.16,358.18 343.49,359.18"/>
    </edge>
    <edge id=":B2_0" function="internal">
        <lane id=":B2_0_0" index="0" disallow="pedestrian" speed="6.51" length="4.75" shape="345.20,689.60 344.85,692.05 343.80,693.80 343.60,693.92"/>
    </edge>
    <edge id=":B2_1" function="internal">
        <lane id=":B2_1_0" index="0" disallow="pedestrian" speed="13.89" length="20.80" shape="345.20,689.60 345.20,710.40"/>
        <lane id=":B2_1_1" index="1" disallow="pedestrian" speed="13.89" length="20.80" shape="348.40,689.60 348.40,710.40"/>
    </edge>
    <edge id=":B2_3" function="internal">
        <lane id=":B2_3_0" index="0" disallow="pedestrian" speed="9.26" length="5.01" shape="348.40,689.60 349.11,694.56"/>
    </edge>
    <edge id=":B2_16" function="internal">
        <lane id=":B2_16_0" index="0" disallow="pedestrian" speed="6.51" length="4.28" shape="343.60,693.92 342.05,694.85 339.60,695.20"/>
    </edge>
    <edge id=":B2_17" function="internal">
        <lane id=":B2_17_0" index="0" disallow="pedestrian" speed="9.26" length="14.34" shape="349.11,694.56 349.15,694.85 351.40,698.60 355.15,700.85 360.40,701.60"/>
    </edge>
    <edge id=":B2_4" function="internal">
        <lane id=":B2_4_0" index="0" disallow="pedestrian" speed="6.51" length="4.75" shape="360.40,695.20 357.95,694.85 356.20,693.80 356.08,693.60"/>
    </edge>
    <edge id=":B2_5" function="internal">
        <lane id=":B2_5_0" index="0" disallow="pedestrian" speed="13.89" length="20.80" shape="360.40,695.20 339.60,695.20"/>
        <lane id=":B2_5_1" index="1" disallow="pedestrian" speed="13.89" length="20.80" shape="360.40,698.40 339.60,698.40"/>
    </edge>
    <edge id=":B2_7" function="internal">
        <lane id=":B2_7_0" index="0" disallow="pedestrian" speed="9.26" length="5.01" shape="360.40,698.40 355.44,699.11"/>
    </edge>
    <edge id=":B2_18" function="internal">
        <lane id=":B2_18_0" index="0" disallow="pedestrian" speed="6.51" length="4.28" shape="356.08,693.60 355.15,692.05 354.80,689.60"/>
    </edge>
    <edge id=":B2_19" function="internal">
        <lane id=":B2_19_0" index="0" disallow="pedestrian" speed="9.26" length="14.34" shape="355.44,699.11 355.15,699.15 351.40,701.40 349.15,705.15 348.40,710.40"/>
    </edge>
    <edge id=":B2_8" function="internal">
        <lane id=":B2_8_0" index="0" disallow="pedestrian" speed="6.51" length="4.75" shape="354.80,710.40 355.15,707.95 356.20,706.20 356.40,706.08"/>
    </edge>
    <edge id=":B2_9" function="internal">
        <lane id=":B2_9_0" index="0" disallow="pedestrian" speed="13.89" length="20.80" shape="354.80,710.40 354.80,689.60"/>
        <lane id=":B2_9_1" index="1" disallow="pedestrian" speed="13.89" length="20.80" shape="351.60,710.40 351.60,689.60"/>
    </edge>
    <edge id=":B2_11" function="internal">
        <lane id=":B2_11_0" index="0" disallow="pedestrian" speed="9.26" length="5.01" shape="351.60,710.40 350.89,705.44"/>
    </edge>
    <edge id=":B2_20" function="internal">
        <lane id=":B2_20_0" index="0" disallow="pedestrian" speed="6.51" length="4.28" shape="356.40,706.08 357.95,705.15 360.40,704.80"/>
    </edge>
    <edge id=":B2_21" function="internal">
        <lane id=":B2_21_0" index="0" disallow="pedestrian" speed="9.26" length="14.34" shape="350.89,705.44 350.85,705.15 348.60,701.40 344.85,699.15 339.60,698.40"/>
    </edge>
    <edge id=":B2_12" function="internal">
        <lane id=":B2_12_0" index="0" disallow="pedestrian" speed="6.51" length="4.75" shape="339.60,704.80 342.05,705.15 343.80,706.20 343.92,706.40"/>
    </edge>
    <edge id=":B2_13" function="internal">
        <lane id=":B2_13_0" index="0" disallow="pedestrian" speed="13.89" length="20.80" shape="339.60,704.80 360.40,704.80"/>
        <lane id=":B2_13_1" index="1" disallow="pedestrian" speed="13.89" length="20.80" shape="339.60,701.60 360.40,701.60"/>
    </edge>
    <edge id=":B2_15" function="internal">
        <lane id=":B2_15_0" index="0" disallow="pedestrian" speed="9.26" length="5.01" shape="339.60,701.60 344.56,700.89"/>
    </edge>
    <edge id=":B2_22" function="internal">
        <lane id=":B2_22_0" index="0" disallow="pedestrian" speed="6.51" length="4.28" shape="343.92,706.40 344.85,707.95 345.20,710.40"/>
    </edge>
    <edge id=":B2_23" function="internal">
        <lane id=":B2_23_0" index="0" disallow="pedestrian" speed="9.26" length="14.34" shape="344.56,700.89 344.85,700.85 348.60,698.60 350.85,694.85 351.60,689.60"/>
    </edge>
    <edge id=":B2_c0" function="crossing" crossingEdges="B2B1 B1B2">
        <lane id=":B2_c0_0" index="0" allow="pedestrian" speed="2.78" length="12.80" width="4.00" shape="356.40,691.60 343.60,691.60" outlineShape="356.40,-689.60 343.60,-689.60 339.60,-693.60 339.60,-691.60 341.60,-689.60 343.60,-689.60 339.60,-693.60 360.40,-693.60 359.18,-693.49 358.18,-693.16 357.40,-692.60 356.84,-691.82 356.51,-690.82"/>
    </edge>
    <edge id=":B2_c1" function="crossing" crossingEdges="B2C2 C2B2">