<?xml version="1.0" encoding="UTF-8"?>

<!-- generated on 2026-01-01T16:28:34.746760+09:00 by Eclipse SUMO netconvert 1.25.0
<netconvertConfiguration xmlns:xsi="http://www.w3.org/2001/XMLSchema-instance" xsi:noNamespaceSchemaLocation="http://sumo.dlr.de/xsd/netconvertConfiguration.xsd">

    <input>
        <sumo-net-file value=".\bus_sidewalks_cross.net.xml"/>
    </input>

    <output>
        <output-file value="bus_with_tls.net.xml"/>
    </output>

    <processing>
        <geometry.min-radius.fix.railways value="false"/>
        <geometry.avoid-overlap value="false"/>
        <geometry.max-grade.fix value="false"/>
        <offset.disable-normalization value="true"/>
        <lefthand value="1"/>
    </processing>

    <tls_building>
        <tls.guess value="true"/>
        <tls.guess.joining value="true"/>
        <tls.join-dist value="20"/>
    </tls_building>

    <junctions>
        <no-turnarounds value="true"/>
        <junctions.corner-detail value="5"/>
        <junctions.limit-turn-speed value="5.50"/>
        <rectangular-lane-cut value="0"/>
    </junctions>

    <pedestrian>
        <walkingareas value="1"/>
    </pedestrian>

</netconvertConfiguration>
-->

<net version="1.20" junctionCornerDetail="5" walkingareas="true" lefthand="true" limitTurnSpeed="5.50" avoidOverlap="0" xmlns:xsi="http://www.w3.org/2001/XMLSchema-instance" xsi:noNamespaceSchemaLocation="http://sumo.dlr.de/xsd/net_file.xsd">

    <location netOffset="0.00,0.00" convBoundary="0.00,0.00,300.00,300.00" origBoundary="0.00,0.00,300.00,300.00" projParameter="!"/>

    <edge id=":A0_0" function="internal">
        <lane id=":A0_0_0" index="0" disallow="pedestrian" speed="9.69" length="21.29" shape="8.40,-4.80 2.63,-3.97 -1.50,-1.50 -3.97,2.63 -4.80,8.40"/>
        <lane id=":A0_0_1" index="1" disallow="pedestrian" speed="8.49" length="16.13" shape="8.40,-1.60 4.03,-0.97 0.90,0.90 -0.97,4.03 -1.60,8.40"/>
    </edge>
    <edge id=":A0_2" function="internal">
        <lane id=":A0_2_0" index="0" disallow="pedestrian" speed="5.37" length="5.81" shape="4.80,8.40 5.03,6.83 5.70,5.70 6.83,5.02 8.40,4.80"/>
        <lane id=":A0_2_1" index="1" disallow="pedestrian" speed="7.10" length="6.77" shape="1.60,8.40 2.03,5.43 3.30,3.30 4.40,2.64"/>
    </edge>
    <edge id=":A0_4" function="internal">
        <lane id=":A0_4_0" index="0" disallow="pedestrian" speed="7.10" length="4.20" shape="4.40,2.64 5.43,2.02 8.40,1.60"/>
    </edge>
    <edge id=":A0_c0" function="crossing" crossingEdges="A0B0 B0A0">
        <lane id=":A0_c0_0" index="0" allow="pedestrian" speed="2.78" length="12.80" width="4.00" shape="6.40,6.40 6.40,-6.40" outlineShape="8.40,-6.50 8.40,6.50 4.40,8.04 8.40,8.40 8.40,6.40 4.40,6.40 4.40,-6.40 6.40,-8.40 6.46,-7.79 6.62,-7.29 6.90,-6.90 7.29,-6.62 7.79,-6.46"/>
    </edge>
    <edge id=":A0_c1" function="crossing" crossingEdges="A0A1 A1A0">
        <lane id=":A0_c1_0" index="0" allow="pedestrian" speed="2.78" length="12.80" width="4.00" shape="-6.40,6.40 6.40,6.40" outlineShape="-6.50,-8.40 6.50,-8.40 8.40,-6.40 8.40,-8.40 6.41,-8.40 6.40,-4.40 -6.40,-4.40 -8.04,-4.40 -7.93,-3.27 -6.53,0.93 -4.20,4.20 -0.93,6.53 3.27,7.93 8.40,8.40 8.40,6.40 3.88,5.99 0.18,4.76 -2.70,2.70 -4.76,-0.18 -5.99,-3.88"/>
    </edge>
    <edge id=":A0_w0" function="walkingarea">
        <lane id=":A0_w0_0" index="0" allow="pedestrian" speed="2.78" length="14.23" width="4.00" shape="-6.40,8.40 -8.40,8.40 -7.93,3.27 -6.53,-0.93 -4.20,-4.20 -0.93,-6.53 3.27,-7.93 8.40,-8.40 8.40,-6.40 3.88,-5.99 0.18,-4.76 -2.70,-2.70 -4.76,0.18 -5.99,3.88"/>
    </edge>
    <edge id=":A0_w1" function="walkingarea">
        <lane id=":A0_w1_0" index="0" allow="pedestrian" speed="2.78" length="1.73" width="4.00" shape="8.40,6.40 8.40,8.40 6.40,8.40 6.46,7.79 6.62,7.29 6.90,6.90 7.29,6.62 7.79,6.46"/>
    </edge>
    <edge id=":A1_0" function="internal">
        <lane id=":A1_0_0" index="0" disallow="pedestrian" speed="13.89" length="20.80" shape="-4.80,89.60 -4.80,110.40"/>
        <lane id=":A1_0_1" index="1" disallow="pedestrian" speed="13.89" length="20.80" shape="-1.60,89.60 -1.60,110.40"/>
    </edge>
    <edge id=":A1_2" function="internal">
        <lane id=":A1_2_0" index="0" disallow="pedestrian" speed="9.26" length="5.01" shape="-1.60,89.60 -0.89,94.56"/>
    </edge>
    <edge id=":A1_8" function="internal">
        <lane id=":A1_8_0" index="0" disallow="pedestrian" speed="9.26" length="14.34" shape="-0.89,94.56 -0.85,94.85 1.40,98.60 5.15,100.85 10.40,101.60"/>
    </edge>
    <edge id=":A1_3" function="internal">
        <lane id=":A1_3_0" index="0" disallow="pedestrian" speed="6.51" length="4.75" shape="10.40,95.20 7.95,94.85 6.20,93.80 6.08,93.60"/>
    </edge>
    <edge id=":A1_4" function="internal">
        <lane id=":A1_4_0" index="0" disallow="pedestrian" speed="9.26" length="15.31" shape="10.40,98.40 5.15,99.15 1.40,101.40 -0.85,105.15 -1.03,106.40"/>
    </edge>
    <edge id=":A1_9" function="internal">
        <lane id=":A1_9_0" index="0" disallow="pedestrian" speed="6.51" length="4.28" shape="6.08,93.60 5.15,92.05 4.80,89.60"/>
    </edge>
    <edge id=":A1_10" function="internal">
        <lane id=":A1_10_0" index="0" disallow="pedestrian" speed="9.26" length="4.04" shape="-1.03,106.40 -1.60,110.40"/>
    </edge>
    <edge id=":A1_5" function="internal">
        <lane id=":A1_5_0" index="0" disallow="pedestrian" speed="6.51" length="4.75" shape="4.80,110.40 5.15,107.95 6.20,106.20 6.40,106.08"/>
    </edge>
    <edge id=":A1_6" function="internal">
        <lane id=":A1_6_0" index="0" disallow="pedestrian" speed="13.89" length="20.80" shape="4.80,110.40 4.80,89.60"/>
        <lane id=":A1_6_1" index="1" disallow="pedestrian" speed="13.89" length="20.80" shape="1.60,110.40 1.60,89.60"/>
    </edge>
    <edge id=":A1_11" function="internal">
        <lane id=":A1_11_0" index="0" disallow="pedestrian" speed="6.51" length="4.28" shape="6.40,106.08 7.95,105.15 10.40,104.80"/>
    </edge>
    <edge id=":A1_c0" function="crossing" crossingEdges="A1A0 A0A1">
        <lane id=":A1_c0_0" index="0" allow="pedestrian" speed="2.78" length="12.80" width="4.00" shape="6.40,91.60 -6.40,91.60" outlineShape="6.50,-89.60 -6.50,-89.60 -6.40,-93.60 6.40,-93.60 8.51,-93.27 8.18,-93.16 7.40,-92.60 6.84,-91.82 6.51,-90.82"/>
    </edge>
    <edge id=":A1_c1" function="crossing" crossingEdges="A1B1 B1A1">
        <lane id=":A1_c1_0" index="0" allow="pedestrian" speed="2.78" length="12.80" width="4.00" shape="8.40,106.40 8.40,93.60" outlineShape="10.40,-106.50 10.40,-93.50 6.40,-89.60 8.40,-89.60 10.40,-91.60 10.40,-93.60 6.40,-89.60 6.40,-110.40 6.51,-109.18 6.84,-108.18 7.40,-107.40 8.18,-106.84 9.18,-106.51"/>
    </edge>
    <edge id=":A1_c2" function="crossing" crossingEdges="A1A2 A2A1">
        <lane id=":A1_c2_0" index="0" allow="pedestrian" speed="2.78" length="12.80" width="4.00" shape="-6.40,108.40 6.40,108.40" outlineShape="-6.50,-110.40 6.50,-110.40 6.51,-109.18 6.84,-108.18 7.40,-107.40 8.18,-106.84 8.51,-106.73 6.40,-106.40 -6.40,-106.40"/>
    </edge>
    <edge id=":A1_w0" function="walkingarea">
        <lane id=":A1_w0_0" index="0" allow="pedestrian" speed="2.78" length="13.29" width="4.00" shape="-6.40,106.40 -6.40,110.40 -8.40,110.40 -8.40,89.60 -6.40,89.60 -6.40,93.60"/>
    </edge>
    <edge id=":A1_w1" function="walkingarea">
        <lane id=":A1_w1_0" index="0" allow="pedestrian" speed="2.78" length="3.30" width="4.00" shape="6.40,89.60 8.40,89.60 10.40,91.60 10.40,93.60 9.18,93.49 8.18,93.16 7.40,92.60 6.84,91.82 6.51,90.82"/>
    </edge>
    <edge id=":A1_w2" function="walkingarea">
        <lane id=":A1_w2_0" index="0" allow="pedestrian" speed="2.78" length="3.30" width="4.00" shape="10.40,106.40 10.40,108.40 8.40,110.40 6.40,110.40 6.51,109.18 6.84,108.18 7.40,107.40 8.18,106.84 9.18,106.51"/>
    </edge>
    <edge id=":A2_0" function="internal">
        <lane id=":A2_0_0" index="0" disallow="pedestrian" speed="13.89" length="20.80" shape="-4.80,189.60 -4.80,210.40"/>
        <lane id=":A2_0_1" index="1" disallow="pedestrian" speed="13.89" length="20.80" shape="-1.60,189.60 -1.60,210.40"/>
    </edge>
    <edge id=":A2_2" function="internal">
        <lane id=":A2_2_0" index="0" disallow="pedestrian" speed="9.26" length="5.01" shape="-1.60,189.60 -0.89,194.56"/>
    </edge>
    <edge id=":A2_8" function="internal">
        <lane id=":A2_8_0" index="0" disallow="pedestrian" speed="9.26" length="14.34" shape="-0.89,194.56 -0.85,194.85 1.40,198.60 5.15,200.85 10.40,201.60"/>
    </edge>
    <edge id=":A2_3" function="internal">
        <lane id=":A2_3_0" index="0" disallow="pedestrian" speed="6.51" length="4.75" shape="10.40,195.20 7.95,194.85 6.20,193.80 6.08,193.60"/>
    </edge>
    <edge id=":A2_4" function="internal">
        <lane id=":A2_4_0" index="0" disallow="pedestrian" speed="9.26" length="15.31" shape="10.40,198.40 5.15,199.15 1.40,201.40 -0.85,205.15 -1.03,206.40"/>
    </edge>
    <edge id=":A2_9" function="internal">
        <lane id=":A2_9_0" index="0" disallow="pedestrian" speed="6.51" length="4.28" shape="6.08,193.60 5.15,192.05 4.80,189.60"/>
    </edge>
    <edge id=":A2_10" function="internal">
        <lane id=":A2_10_0" index="0" disallow="pedestrian" speed="9.26" length="4.04" shape="-1.03,206.40 -1.60,210.40"/>
    </edge>
    <edge id=":A2_5" function="internal">
        <lane id=":A2_5_0" index="0" disallow="pedestrian" speed="6.51" length="4.75" shape="4.80,210.40 5.15,207.95 6.20,206.20 6.40,206.08"/>
    </edge>
    <edge id=":A2_6" function="internal">
        <lane id=":A2_6_0" index="0" disallow="pedestrian" speed="13.89" length="20.80" shape="4.80,210.40 4.80,189.60"/>
        <lane id=":A2_6_1" index="1" disallow="pedestrian" speed="13.89" length="20.80" shape="1.60,210.40 1.60,189.60"/>
    </edge>
    <edge id=":A2_11" function="internal">
        <lane id=":A2_11_0" index="0" disallow="pedestrian" speed="6.51" length="4.28" shape="6.40,206.08 7.95,205.15 10.40,204.80"/>
    </edge>
    <edge id=":A2_c0" function="crossing" crossingEdges="A2A1 A1A2">
        <lane id=":A2_c0_0" index="0" allow="pedestrian" speed="2.78" length="12.80" width="4.00" shape="6.40,191.60 -6.40,191.60" outlineShape="6.50,-189.60 -6.50,-189.60 -6.40,-193.60 6.40,-193.60 8.51,-193.27 8.18,-193.16 7.40,-192.60 6.84,-191.82 6.51,-190.82"/>
    </edge>
    <edge id=":A2_c1" function="crossing" crossingEdges="A2B2 B2A2">
        <lane id=":A2_c1_0" index="0" allow="pedestrian" speed="2.78" length="12.80" width="4.00" shape="8.40,206.40 8.40,193.60" outlineShape="10.40,-206.50 10.40,-193.50 6.40,-189.60 8.40,-189.60 10.40,-191.60 10.40,-193.60 6.40,-189.60 6.40,-210.40 6.51,-209.18 6.84,-208.18 7.40,-207.40 8.18,-206.84 9.18,-206.51"/>
    </edge>
    <edge id=":A2_c2" function="crossing" crossingEdges="A2A3 A3A2">
        <lane id=":A2_c2_0" index="0" allow="pedestrian" speed="2.78" length="12.80" width="4.00" shape="-6.40,208.40 6.40,208.40" outlineShape="-6.50,-210.40 6.50,-210.40 6.51,-209.18 6.84,-208.18 7.40,-207.40 8.18,-206.84 8.51,-206.73 6.40,-206.40 -6.40,-206.40"/>
    </edge>
    <edge id=":A2_w0" function="walkingarea">
        <lane id=":A2_w0_0" index="0" allow="pedestrian" speed="2.78" length="13.29" width="4.00" shape="-6.40,206.40 -6.40,210.40 -8.40,210.40 -8.40,189.60 -6.40,189.60 -6.40,193.60"/>
    </edge>
    <edge id=":A2_w1" function="walkingarea">
        <lane id=":A2_w1_0" index="0" allow="pedestrian" speed="2.78" length="3.30" width="4.00" shape="6.40,189.60 8.40,189.60 10.40,191.60 10.40,193.60 9.18,193.49 8.18,193.16 7.40,192.60 6.84,191.82 6.51,190.82"/>
    </edge>
    <edge id=":A2_w2" function="walkingarea">
        <lane id=":A2_w2_0" index="0" allow="pedestrian" speed="2.78" length="3.30" width="4.00" shape="10.40,206.40 10.40,208.40 8.40,210.40 6.40,210.40 6.51,209.18 6.84,208.18 7.40,207.40 8.18,206.84 9.18,206.51"/>
    </edge>
    <edge id=":A3_0" function="internal">
        <lane id=":A3_0_0" index="0" disallow="pedestrian" speed="9.69" length="21.29" shape="-4.80,291.60 -3.97,297.38 -1.50,301.50 2.63,303.98 8.40,304.80"/>
        <lane id=":A3_0_1" index="1" disallow="pedestrian" speed="8.49" length="16.13" shape="-1.60,291.60 -0.97,295.98 0.90,299.10 4.03,300.98 8.40,301.60"/>
    </edge>
    <edge id=":A3_2" function="internal">
        <lane id=":A3_2_0" index="0" disallow="pedestrian" speed="5.37" length="5.81" shape="8.40,295.20 6.83,294.98 5.70,294.30 5.02,293.17 4.80,291.60"/>
        <lane id=":A3_2_1" index="1" disallow="pedestrian" speed="7.10" length="6.77" shape="8.40,298.40 5.43,297.98 3.30,296.70 2.64,295.60"/>
    </edge>
    <edge id=":A3_4" function="internal">
        <lane id=":A3_4_0" index="0" disallow="pedestrian" speed="7.10" length="4.20" shape="2.64,295.60 2.02,294.57 1.60,291.60"/>
    </edge>
    <edge id=":A3_c0" function="crossing" crossingEdges="A3A2 A2A3">
        <lane id=":A3_c0_0" index="0" allow="pedestrian" speed="2.78" length="12.80" width="4.00" shape="6.40,293.60 -6.40,293.60" outlineShape="6.50,-291.60 -6.50,-291.60 -8.04,-295.60 -8.40,-291.60 -6.40,-291.60 -6.40,-295.60 6.40,-295.60 8.40,-293.60 7.79,-293.54 7.29,-293.38 6.90,-293.10 6.62,-292.71 6.46,-292.21"/>
    </edge>
    <edge id=":A3_c1" function="crossing" crossingEdges="A3B3 B3A3">
        <lane id=":A3_c1_0" index="0" allow="pedestrian" speed="2.78" length="12.80" width="4.00" shape="6.40,306.40 6.40,293.60" outlineShape="8.40,-306.40 8.40,-293.60 6.40,-291.60 8.40,-291.60 8.40,-293.60 4.40,-293.60 4.40,-306.40 4.40,-308.04 3.27,-307.93 -0.93,-306.53 -4.20,-304.20 -6.53,-300.93 -7.93,-296.73 -8.40,-291.60 -6.40,-291.60 -5.99,-296.12 -4.76,-299.82 -2.70,-302.70 0.18,-304.76 3.88,-305.99"/>
    </edge>
    <edge id=":A3_w0" function="walkingarea">
        <lane id=":A3_w0_0" index="0" allow="pedestrian" speed="2.78" length="14.23" width="4.00" shape="8.40,306.40 8.40,308.40 3.27,307.93 -0.93,306.53 -4.20,304.20 -6.53,300.93 -7.93,296.73 -8.40,291.60 -6.40,291.60 -5.99,296.12 -4.76,299.82 -2.70,302.70 0.18,304.76 3.88,305.99"/>
    </edge>
    <edge id=":A3_w1" function="walkingarea">
        <lane id=":A3_w1_0" index="0" allow="pedestrian" speed="2.78" length="1.73" width="4.00" shape="6.40,291.60 8.40,291.60 8.40,293.60 7.79,293.54 7.29,293.38 6.90,293.10 6.62,292.71 6.46,292.21"/>
    </edge>
    <edge id=":B0_0" function="internal">
        <lane id=":B0_0_0" index="0" disallow="pedestrian" speed="13.89" length="20.80" shape="110.40,-4.80 89.60,-4.80"/>
        <lane id=":B0_0_1" index="1" disallow="pedestrian" speed="13.89" length="20.80" shape="110.40,-1.60 89.60,-1.60"/>
    </edge>
    <edge id=":B0_2" function="internal">
        <lane id=":B0_2_0" index="0" disallow="pedestrian" speed="9.26" length="5.01" shape="110.40,-1.60 105.44,-0.89"/>
    </edge>
    <edge id=":B0_8" function="internal">
        <lane id=":B0_8_0" index="0" disallow="pedestrian" speed="9.26" length="14.34" shape="105.44,-0.89 105.15,-0.85 101.40,1.40 99.15,5.15 98.40,10.40"/>
    </edge>
    <edge id=":B0_3" function="internal">
        <lane id=":B0_3_0" index="0" disallow="pedestrian" speed="6.51" length="4.75" shape="104.80,10.40 105.15,7.95 106.20,6.20 106.40,6.08"/>
    </edge>
    <edge id=":B0_4" function="internal">
        <lane id=":B0_4_0" index="0" disallow="pedestrian" speed="9.26" length="15.31" shape="101.60,10.40 100.85,5.15 98.60,1.40 94.85,-0.85 93.60,-1.03"/>
    </edge>
    <edge id=":B0_9" function="internal">
        <lane id=":B0_9_0" index="0" disallow="pedestrian" speed="6.51" length="4.28" shape="106.40,6.08 107.95,5.15 110.40,4.80"/>
    </edge>
    <edge id=":B0_10" function="internal">
        <lane id=":B0_10_0" index="0" disallow="pedestrian" speed="9.26" length="4.04" shape="93.60,-1.03 89.60,-1.60"/>
    </edge>
    <edge id=":B0_5" function="internal">
        <lane id=":B0_5_0" index="0" disallow="pedestrian" speed="6.51" length="4.75" shape="89.60,4.80 92.05,5.15 93.80,6.20 93.92,6.40"/>
    </edge>
    <edge id=":B0_6" function="internal">
        <lane id=":B0_6_0" index="0" disallow="pedestrian" speed="13.89" length="20.80" shape="89.60,4.80 110.40,4.80"/>
        <lane id=":B0_6_1" index="1" disallow="pedestrian" speed="13.89" length="20.80" shape="89.60,1.60 110.40,1.60"/>
    </edge>
    <edge id=":B0_11" function="internal">
        <lane id=":B0_11_0" index="0" disallow="pedestrian" speed="6.51" length="4.28" shape="93.92,6.40 94.85,7.95 95.20,10.40"/>
    </edge>
    <edge id=":B0_c0" function="crossing" crossingEdges="B0C0 C0B0">
        <lane id=":B0_c0_0" index="0" allow="pedestrian" speed="2.78" length="12.80" width="4.00" shape="108.40,6.40 108.40,-6.40" outlineShape="110.40,-6.50 110.40,6.50 106.40,6.40 106.40,-6.40 106.73,-8.51 106.84,-8.18 107.40,-7.40 108.18,-6.84 109.18,-6.51"/>
    </edge>
    <edge id=":B0_c1" function="crossing" crossingEdges="B0B1 B1B0">
        <lane id=":B0_c1_0" index="0" allow="pedestrian" speed="2.78" length="12.80" width="4.00" shape="93.60,8.40 106.40,8.40" outlineShape="93.50,-10.40 106.50,-10.40 110.40,-6.40 110.40,-8.40 108.40,-10.40 106.40,-10.40 110.40,-6.40 89.60,-6.40 90.82,-6.51 91.82,-6.84 92.60,-7.40 93.16,-8.18 93.49,-9.18"/>
    </edge>
    <edge id=":B0_c2" function="crossing" crossingEdges="B0A0 A0B0">
        <lane id=":B0_c2_0" index="0" allow="pedestrian" speed="2.78" length="12.80" width="4.00" shape="91.60,-6.40 91.60,6.40" outlineShape="89.60,6.50 89.60,-6.50 90.82,-6.51 91.82,-6.84 92.60,-7.40 93.16,-8.18 93.27,-8.51 93.60,-6.40 93.60,6.40"/>
    </edge>
    <edge id=":B0_w0" function="walkingarea">
        <lane id=":B0_w0_0" index="0" allow="pedestrian" speed="2.78" length="13.29" width="4.00" shape="93.60,-6.40 89.60,-6.40 89.60,-8.40 110.40,-8.40 110.40,-6.40 106.40,-6.40"/>
    </edge>
    <edge id=":B0_w1" function="walkingarea">
        <lane id=":B0_w1_0" index="0" allow="pedestrian" speed="2.78" length="3.30" width="4.00" shape="110.40,6.40 110.40,8.40 108.40,10.40 106.40,10.40 106.51,9.18 106.84,8.18 107.40,7.40 108.18,6.84 109.18,6.51"/>
    </edge>
    <edge id=":B0_w2" function="walkingarea">
        <lane id=":B0_w2_0" index="0" allow="pedestrian" speed="2.78" length="3.30" width="4.00" shape="93.60,10.40 91.60,10.40 89.60,8.40 89.60,6.40 90.82,6.51 91.82,6.84 92.60,7.40 93.16,8.18 93.49,9.18"/>
    </edge>
    <edge id=":B1_0" function="internal">
        <lane id=":B1_0_0" index="0" disallow="pedestrian" speed="6.51" length="4.75" shape="95.20,89.60 94.85,92.05 93.80,93.80 93.60,93.92"/>
    </edge>
    <edge id=":B1_1" function="internal">
        <lane id=":B1_1_0" index="0" disallow="pedestrian" speed="13.89" length="20.80" shape="95.20,89.60 95.20,110.40"/>
        <lane id=":B1_1_1" index="1" disallow="pedestrian" speed="13.89" length="20.80" shape="98.40,89.60 98.40,110.40"/>
    </edge>
    <edge id=":B1_3" function="internal">
        <lane id=":B1_3_0" index="0" disallow="pedestrian" speed="9.26" length="5.01" shape="98.40,89.60 99.11,94.56"/>
    </edge>
    <edge id=":B1_16" function="internal">
        <lane id=":B1_16_0" index="0" disallow="pedestrian" speed="6.51" length="4.28" shape="93.60,93.92 92.05,94.85 89.60,95.20"/>
    </edge>
    <edge id=":B1_17" function="internal">
        <lane id=":B1_17_0" index="0" disallow="pedestrian" speed="9.26" length="14.34" shape="99.11,94.56 99.15,94.85 101.40,98.60 105.15,100.85 110.40,101.60"/>
    </edge>
    <edge id=":B1_4" function="internal">
        <lane id=":B1_4_0" index="0" disallow="pedestrian" speed="6.51" length="4.75" shape="110.40,95.20 107.95,94.85 106.20,93.80 106.08,93.60"/>
    </edge>
    <edge id=":B1_5" function="internal">
        <lane id=":B1_5_0" index="0" disallow="pedestrian" speed="13.89" length="20.80" shape="110.40,95.20 89.60,95.20"/>
        <lane id=":B1_5_1" index="1" disallow="pedestrian" speed="13.89" length="20.80" shape="110.40,98.40 89.60,98.40"/>
    </edge>
    <edge id=":B1_7" function="internal">
        <lane id=":B1_7_0" index="0" disallow="pedestrian" speed="9.26" length="5.01" shape="110.40,98.40 105.44,99.11"/>
    </edge>
    <edge id=":B1_18" function="internal">
        <lane id=":B1_18_0" index="0" disallow="pedestrian" speed="6.51" length="4.28" shape="106.08,93.60 105.15,92.05 104.80,89.60"/>
    </edge>
    <edge id=":B1_19" function="internal">
        <lane id=":B1_19_0" index="0" disallow="pedestrian" speed="9.26" length="14.34" shape="105.44,99.11 105.15,99.15 101.40,101.40 99.15,105.15 98.40,110.40"/>
    </edge>
    <edge id=":B1_8" function="internal">
        <lane id=":B1_8_0" index="0" disallow="pedestrian" speed="6.51" length="4.75" shape="104.80,110.40 105.15,107.95 106.20,106.20 106.40,106.08"/>
    </edge>
    <edge id=":B1_9" function="internal">
        <lane id=":B1_9_0" index="0" disallow="pedestrian" speed="13.89" length="20.80" shape="104.80,110.40 104.80,89.60"/>
        <lane id=":B1_9_1" index="1" disallow="pedestrian" speed="13.89" length="20.80" shape="101.60,110.40 101.60,89.60"/>
    </edge>
    <edge id=":B1_11" function="internal">
        <lane id=":B1_11_0" index="0" disallow="pedestrian" speed="9.26" length="5.01" shape="101.60,110.40 100.89,105.44"/>
    </edge>
    <edge id=":B1_20" function="internal">
        <lane id=":B1_20_0" index="0" disallow="pedestrian" speed="6.51" length="4.28" shape="106.40,106.08 107.95,105.15 110.40,104.80"/>
    </edge>
    <edge id=":B1_21" function="internal">
        <lane id=":B1_21_0" index="0" disallow="pedestrian" speed="9.26" length="14.34" shape="100.89,105.44 100.85,105.15 98.60,101.40 94.85,99.15 89.60,98.40"/>
    </edge>
    <edge id=":B1_12" function="internal">
        <lane id=":B1_12_0" index="0" disallow="pedestrian" speed="6.51" length="4.75" shape="89.60,104.80 92.05,105.15 93.80,106.20 93.92,106.40"/>
    </edge>
    <edge id=":B1_13" function="internal">
        <lane id=":B1_13_0" index="0" disallow="pedestrian" speed="13.89" length="20.80" shape="89.60,104.80 110.40,104.80"/>
        <lane id=":B1_13_1" index="1" disallow="pedestrian" speed="13.89" length="20.80" shape="89.60,101.60 110.40,101.60"/>
    </edge>
    <edge id=":B1_15" function="internal">
        <lane id=":B1_15_0" index="0" disallow="pedestrian" speed="9.26" length="5.01" shape="89.60,101.60 94.56,100.89"/>
    </edge>
    <edge id=":B1_22" function="internal">
        <lane id=":B1_22_0" index="0" disallow="pedestrian" speed="6.51" length="4.28" shape="93.92,106.40 94.85,107.95 95.20,110.40"/>
    </edge>
    <edge id=":B1_23" function="internal">
        <lane id=":B1_23_0" index="0" disallow="pedestrian" speed="9.26" length="14.34" shape="94.56,100.89 94.85,100.85 98.60,98.60 100.85,94.85 101.60,89.60"/>
    </edge>
    <edge id=":B1_c0" function="crossing" crossingEdges="B1B0 B0B1">
        <lane id=":B1_c0_0" index="0" allow="pedestrian" speed="2.78" length="12.80" width="4.00" shape="106.40,91.60 93.60,91.60" outlineShape="106.50,-89.60 93.50,-89.60 93.49,-90.82 93.16,-91.82 92.60,-92.60 91.82,-93.16 91.49,-93.27 93.60,-93.60 106.40,-93.60 108.51,-93.27 108.18,-93.16 107.40,-92.60 106.84,-91.82 106.51,-90.82"/>
    </edge>
    <edge id=":B1_c1" function="crossing" crossingEdges="B1C1 C1B1">
        <lane id=":B1_c1_0" index="0" allow="pedestrian" speed="2.78" length="12.80" width="4.00" shape="108.40,106.40 108.40,93.60" outlineShape="110.40,-106.50 110.40,-93.50 109.18,-93.49 108.18,-93.16 107.40,-92.60 106.84,-91.82 106.73,-91.49 106.40,-93.60 106.40,-106.40 106.73,-108.51 106.84,-108.18 107.40,-107.40 108.18,-106.84 109.18,-106.51"/>
    </edge>
    <edge id=":B1_c2" function="crossing" crossingEdges="B1B2 B2B1">
        <lane id=":B1_c2_0" index="0" allow="pedestrian" speed="2.78" length="12.80" width="4.00" shape="93.60,108.40 106.40,108.40" outlineShape="93.50,-110.40 106.50,-110.40 106.51,-109.18 106.84,-108.18 107.40,-107.40 108.18,-106.84 108.51,-106.73 106.40,-106.40 93.60,-106.40 91.49,-106.73 91.82,-106.84 92.60,-107.40 93.16,-108.18 93.49,-109.18"/>
    </edge>
    <edge id=":B1_c3" function="crossing" crossingEdges="B1A1 A1B1">
        <lane id=":B1_c3_0" index="0" allow="pedestrian" speed="2.78" length="12.80" width="4.00" shape="91.60,93.60 91.60,106.40" outlineShape="89.60,-93.50 89.60,-106.50 90.82,-106.51 91.82,-106.84 92.60,-107.40 93.16,-108.18 93.27,-108.51 93.60,-106.40 93.60,-93.60 93.27,-91.49 93.16,-91.82 92.60,-92.60 91.82,-93.16 90.82,-93.49"/>
    </edge>
    <edge id=":B1_w0" function="walkingarea">
        <lane id=":B1_w0_0" index="0" allow="pedestrian" speed="2.78" length="3.30" width="4.00" shape="89.60,93.60 89.60,91.60 91.60,89.60 93.60,89.60 93.49,90.82 93.16,91.82 92.60,92.60 91.82,93.16 90.82,93.49"/>
    </edge>
    <edge id=":B1_w1" function="walkingarea">
        <lane id=":B1_w1_0" index="0" allow="pedestrian" speed="2.78" length="3.30" width="4.00" shape="106.40,89.60 108.40,89.60 110.40,91.60 110.40,93.60 109.18,93.49 108.18,93.16 107.40,92.60 106.84,91.82 106.51,90.82"/>
    </edge>
    <edge id=":B1_w2" function="walkingarea">
        <lane id=":B1_w2_0" index="0" allow="pedestrian" speed="2.78" length="3.30" width="4.00" shape="110.40,106.40 110.40,108.40 108.40,110.40 106.40,110.40 106.51,109.18 106.84,108.18 107.40,107.40 108.18,106.84 109.18,106.51"/>
    </edge>
    <edge id=":B1_w3" function="walkingarea">
        <lane id=":B1_w3_0" index="0" allow="pedestrian" speed="2.78" length="3.30" width="4.00" shape="93.60,110.40 91.60,110.40 89.60,108.40 89.60,106.40 90.82,106.51 91.82,106.84 92.60,107.40 93.16,108.18 93.49,109.18"/>
    </edge>
    <edge id=":B2_0" function="internal">
        <lane id=":B2_0_0" index="0" disallow="pedestrian" speed="6.51" length="4.75" shape="95.20,189.60 94.85,192.05 93.80,193.80 93.60,193.92"/>
    </edge>
    <edge id=":B2_1" function="internal">
        <lane id=":B2_1_0" index="0" disallow="pedestrian" speed="13.89" length="20.80" shape="95.20,189.60 95.20,210.40"/>
        <lane id=":B2_1_1" index="1" disallow="pedestrian" speed="13.89" length="20.80" shape="98.40,189.60 98.40,210.40"/>
    </edge>
    <edge id=":B2_3" function="internal">
        <lane id=":B2_3_0" index="0" disallow="pedestrian" speed="9.26" length="5.01" shape="98.40,189.60 99.11,194.56"/>
    </edge>
    <edge id=":B2_16" function="internal">
        <lane id=":B2_16_0" index="0" disallow="pedestrian" speed="6.51" length="4.28" shape="93.60,193.92 92.05,194.85 89.60,195.20"/>
    </edge>
    <edge id=":B2_17" function="internal">
        <lane id=":B2_17_0" index="0" disallow="pedestrian" speed="9.26" length="14.34" shape="99.11,194.56 99.15,194.85 101.40,198.60 105.15,200.85 110.40,201.60"/>
    </edge>
    <edge id=":B2_4" function="internal">
        <lane id=":B2_4_0" index="0" disallow="pedestrian" speed="6.51" length="4.75" shape="110.40,195.20 107.95,194.85 106.20,193.80 106.08,193.60"/>
    </edge>
    <edge id=":B2_5" function="internal">
        <lane id=":B2_5_0" index="0" disallow="pedestrian" speed="13.89" length="20.80" shape="110.40,195.20 89.60,195.20"/>
        <lane id=":B2_5_1" index="1" disallow="pedestrian" speed="13.89" length="20.80" shape="110.40,198.40 89.60,198.40"/>
    </edge>
    <edge id=":B2_7" function="internal">
        <lane id=":B2_7_0" index="0" disallow="pedestrian" speed="9.26" length="5.01" shape="110.40,198.40 105.44,199.11"/>
    </edge>
    <edge id=":B2_18" function="internal">
        <lane id=":B2_18_0" index="0" disallow="pedestrian" speed="6.51" length="4.28" shape="106.08,193.60 105.15,192.05 104.80,189.60"/>
    </edge>
    <edge id=":B2_19" function="internal">
        <lane id=":B2_19_0" index="0" disallow="pedestrian" speed="9.26" length="14.34" shape="105.44,199.11 105.15,199.15 101.40,201.40 99.15,205.15 98.40,210.40"/>
    </edge>
    <edge id=":B2_8" function="internal">
        <lane id=":B2_8_0" index="0" disallow="pedestrian" speed="6.51" length="4.75" shape="104.80,210.40 105.15,207.95 106.20,206.20 106.40,206.08"/>
    </edge>
    <edge id=":B2_9" function="internal">
        <lane id=":B2_9_0" index="0" disallow="pedestrian" speed="13.89" length="20.80" shape="104.80,210.40 104.80,189.60"/>
        <lane id=":B2_9_1" index="1" disallow="pedestrian" speed="13.89" length="20.80" shape="101.60,210.40 101.60,189.60"/>
    </edge>
    <edge id=":B2_11" function="internal">
        <lane id=":B2_11_0" index="0" disallow="pedestrian" speed="9.26" length="5.01" shape="101.60,210.40 100.89,205.44"/>
    </edge>
    <edge id=":B2_20" function="internal">
        <lane id=":B2_20_0" index="0" disallow="pedestrian" speed="6.51" length="4.28" shape="106.40,206.08 107.95,205.15 110.40,204.80"/>
    </edge>
    <edge id=":B2_21" function="internal">
        <lane id=":B2_21_0" index="0" disallow="pedestrian" speed="9.26" length="14.34" shape="100.89,205.44 100.85,205.15 98.60,201.40 94.85,199.15 89.60,198.40"/>
    </edge>
    <edge id=":B2_12" function="internal">
        <lane id=":B2_12_0" index="0" disallow="pedestrian" speed="6.51" length="4.75" shape="89.60,204.80 92.05,205.15 93.80,206.20 93.92,206.40"/>
    </edge>
    <edge id=":B2_13" function="internal">
        <lane id=":B2_13_0" index="0" disallow="pedestrian" speed="13.89" length="20.80" shape="89.60,204.80 110.40,204.80"/>
        <lane id=":B2_13_1" index="1" disallow="pedestrian" speed="13.89" length="20.80" shape="89.60,201.60 110.40,201.60"/>
    </edge>
    <edge id=":B2_15" function="internal">
        <lane id=":B2_15_0" index="0" disallow="pedestrian" speed="9.26" length="5.01" shape="89.60,201.60 94.56,200.89"/>
    </edge>
    <edge id=":B2_22" function="internal">
        <lane id=":B2_22_0" index="0" disallow="pedestrian" speed="6.51" length="4.28" shape="93.92,206.40 94.85,207.95 95.20,210.40"/>
    </edge>
    <edge id=":B2_23" function="internal">
        <lane id=":B2_23_0" index="0" disallow="pedestrian" speed="9.26" length="14.34" shape="94.56,200.89 94.85,200.85 98.60,198.60 100.85,194.85 101.60,189.60"/>
    </edge>
    <edge id=":B2_c0" function="crossing" crossingEdges="B2B1 B1B2">