<?xml version="1.0" encoding="UTF-8"?>

<!-- generated on 2026-01-24T18:18:43.615370+08:00 by Eclipse SUMO netconvert 1.25.0
<netconvertConfiguration xmlns:xsi="http://www.w3.org/2001/XMLSchema-instance" xsi:noNamespaceSchemaLocation="http://sumo.dlr.de/xsd/netconvertConfiguration.xsd">

    <input>
        <sumo-net-file value="bus_6x6_staticTLS.net.xml"/>
    </input>

    <output>
        <output-file value="bus_6x6_tls.net.xml"/>
    </output>

    <processing>
        <geometry.min-radius.fix.railways value="false"/>
        <geometry.avoid-overlap value="false"/>
        <geometry.max-grade.fix value="false"/>
        <offset.disable-normalization value="true"/>
        <lefthand value="1"/>
    </processing>

    <tls_building>
        <tls.guess value="true"/>
        <tls.cycle.time value="90"/>
        <tls.default-type value="static"/>
    </tls_building>

    <junctions>
        <no-turnarounds value="true"/>
        <junctions.corner-detail value="5"/>
        <junctions.limit-turn-speed value="5.50"/>
        <rectangular-lane-cut value="0"/>
    </junctions>

    <pedestrian>
        <walkingareas value="1"/>
    </pedestrian>

</netconvertConfiguration>
-->

<net version="1.20" junctionCornerDetail="5" walkingareas="true" lefthand="true" limitTurnSpeed="5.50" avoidOverlap="0" xmlns:xsi="http://www.w3.org/2001/XMLSchema-instance" xsi:noNamespaceSchemaLocation="http://sumo.dlr.de/xsd/net_file.xsd">

    <location netOffset="0.00,-0.00" convBoundary="0.00,0.00,1000.00,1000.00" origBoundary="0.00,0.00,1000.00,1000.00" projParameter="!"/>

    <edge id=":A0_0" function="internal">
        <lane id=":A0_0_0" index="0" disallow="pedestrian" speed="8.33" length="21.29" shape="8.40,-4.80 2.63,-3.97 -1.50,-1.50 -3.97,2.63 -4.80,8.40"/>
        <lane id=":A0_0_1" index="1" disallow="pedestrian" speed="8.33" length="16.13" shape="8.40,-1.60 4.03,-0.97 0.90,0.90 -0.97,4.03 -1.60,8.40"/>
    </edge>
    <edge id=":A0_2" function="internal">
        <lane id=":A0_2_0" index="0" disallow="pedestrian" speed="5.37" length="5.81" shape="4.80,8.40 5.03,6.83 5.70,5.70 6.83,5.02 8.40,4.80"/>
        <lane id=":A0_2_1" index="1" disallow="pedestrian" speed="7.10" length="6.77" shape="1.60,8.40 2.03,5.43 3.30,3.30 4.40,2.64"/>
    </edge>
    <edge id=":A0_4" function="internal">
        <lane id=":A0_4_0" index="0" disallow="pedestrian" speed="7.10" length="4.20" shape="4.40,2.64 5.43,2.02 8.40,1.60"/>
    </edge>
    <edge id=":A0_c0" function="crossing" crossingEdges="A0B0 B0A0">
        <lane id=":A0_c0_0" index="0" allow="pedestrian" speed="2.78" length="12.80" width="4.00" shape="6.40,6.40 6.40,-6.40" outlineShape="8.40,-6.50 8.40,6.40 4.40,8.04 8.40,8.40 8.40,6.40 4.40,6.40 4.40,-6.40 6.40,-8.40 6.46,-7.79 6.62,-7.29 6.90,-6.90 7.29,-6.62 7.79,-6.46"/>
    </edge>
    <edge id=":A0_w0" function="walkingarea">
        <lane id=":A0_w0_0" index="0" allow="pedestrian" speed="2.78" length="14.94" width="4.00" shape="-6.40,8.40 -8.40,8.40 -7.93,3.27 -6.53,-0.93 -4.20,-4.20 -0.93,-6.53 3.27,-7.93 8.40,-8.40 8.40,-6.40 3.88,-5.99 0.18,-4.76 -2.70,-2.70 -4.76,0.18 -5.99,3.88"/>
    </edge>
    <edge id=":A0_w1" function="walkingarea">
        <lane id=":A0_w1_0" index="0" allow="pedestrian" speed="2.78" length="1.96" width="4.00" shape="8.40,6.40 8.40,8.40 6.40,8.40 6.46,7.79 6.62,7.29 6.90,6.90 7.29,6.62 7.79,6.46"/>
    </edge>
    <edge id=":A1_0" function="internal">
        <lane id=":A1_0_0" index="0" disallow="pedestrian" speed="8.33" length="20.80" shape="-4.80,189.60 -4.80,210.40"/>
        <lane id=":A1_0_1" index="1" disallow="pedestrian" speed="8.33" length="20.80" shape="-1.60,189.60 -1.60,210.40"/>
    </edge>
    <edge id=":A1_2" function="internal">
        <lane id=":A1_2_0" index="0" disallow="pedestrian" speed="8.33" length="5.01" shape="-1.60,189.60 -0.89,194.56"/>
    </edge>
    <edge id=":A1_8" function="internal">
        <lane id=":A1_8_0" index="0" disallow="pedestrian" speed="8.33" length="14.34" shape="-0.89,194.56 -0.85,194.85 1.40,198.60 5.15,200.85 10.40,201.60"/>
    </edge>
    <edge id=":A1_3" function="internal">
        <lane id=":A1_3_0" index="0" disallow="pedestrian" speed="6.51" length="4.75" shape="10.40,195.20 7.95,194.85 6.20,193.80 6.08,193.60"/>
    </edge>
    <edge id=":A1_4" function="internal">
        <lane id=":A1_4_0" index="0" disallow="pedestrian" speed="8.33" length="15.31" shape="10.40,198.40 5.15,199.15 1.40,201.40 -0.85,205.15 -1.03,206.40"/>
    </edge>
    <edge id=":A1_9" function="internal">
        <lane id=":A1_9_0" index="0" disallow="pedestrian" speed="6.51" length="4.28" shape="6.08,193.60 5.15,192.05 4.80,189.60"/>
    </edge>
    <edge id=":A1_10" function="internal">
        <lane id=":A1_10_0" index="0" disallow="pedestrian" speed="8.33" length="4.04" shape="-1.03,206.40 -1.60,210.40"/>
    </edge>
    <edge id=":A1_5" function="internal">
        <lane id=":A1_5_0" index="0" disallow="pedestrian" speed="6.51" length="4.75" shape="4.80,210.40 5.15,207.95 6.20,206.20 6.40,206.08"/>
    </edge>
    <edge id=":A1_6" function="internal">
        <lane id=":A1_6_0" index="0" disallow="pedestrian" speed="8.33" length="20.80" shape="4.80,210.40 4.80,189.60"/>
        <lane id=":A1_6_1" index="1" disallow="pedestrian" speed="8.33" length="20.80" shape="1.60,210.40 1.60,189.60"/>
    </edge>
    <edge id=":A1_11" function="internal">
        <lane id=":A1_11_0" index="0" disallow="pedestrian" speed="6.51" length="4.28" shape="6.40,206.08 7.95,205.15 10.40,204.80"/>
    </edge>
    <edge id=":A1_c0" function="crossing" crossingEdges="A1A0 A0A1">
        <lane id=":A1_c0_0" index="0" allow="pedestrian" speed="2.78" length="12.80" width="4.00" shape="6.40,191.60 -6.40,191.60" outlineShape="6.50,-189.60 -6.50,-189.60 -8.40,-193.60 -8.40,-189.60 -6.40,-189.60 -6.40,-193.60 6.40,-193.60 8.51,-193.27 8.18,-193.16 7.40,-192.60 6.84,-191.82 6.51,-190.82"/>
    </edge>
    <edge id=":A1_c1" function="crossing" crossingEdges="A1B1 B1A1">
        <lane id=":A1_c1_0" index="0" allow="pedestrian" speed="2.78" length="12.80" width="4.00" shape="8.40,206.40 8.40,193.60" outlineShape="10.40,-206.50 10.40,-193.50 6.40,-189.60 8.40,-189.60 10.40,-191.60 10.40,-193.60 6.40,-189.60 6.40,-210.40 6.51,-209.18 6.84,-208.18 7.40,-207.40 8.18,-206.84 9.18,-206.51"/>
    </edge>
    <edge id=":A1_c2" function="crossing" crossingEdges="A1A2 A2A1">
        <lane id=":A1_c2_0" index="0" allow="pedestrian" speed="2.78" length="12.80" width="4.00" shape="-6.40,208.40 6.40,208.40" outlineShape="-6.50,-210.40 6.50,-210.40 6.51,-209.18 6.84,-208.18 7.40,-207.40 8.18,-206.84 8.51,-206.73 6.40,-206.40 -6.40,-206.40"/>
    </edge>
    <edge id=":A1_w0" function="walkingarea">
        <lane id=":A1_w0_0" index="0" allow="pedestrian" speed="2.78" length="13.29" width="4.00" shape="-6.40,206.40 -6.40,210.40 -8.40,210.40 -8.40,189.60 -6.40,189.60 -6.40,193.60"/>
    </edge>
    <edge id=":A1_w1" function="walkingarea">
        <lane id=":A1_w1_0" index="0" allow="pedestrian" speed="2.78" length="3.30" width="4.00" shape="6.40,189.60 8.40,189.60 10.40,191.60 10.40,193.60 9.18,193.49 8.18,193.16 7.40,192.60 6.84,191.82 6.51,190.82"/>
    </edge>
    <edge id=":A1_w2" function="walkingarea">
        <lane id=":A1_w2_0" index="0" allow="pedestrian" speed="2.78" length="3.30" width="4.00" shape="10.40,206.40 10.40,208.40 8.40,210.40 6.40,210.40 6.51,209.18 6.84,208.18 7.40,207.40 8.18,206.84 9.18,206.51"/>
    </edge>
    <edge id=":A2_0" function="internal">
        <lane id=":A2_0_0" index="0" disallow="pedestrian" speed="8.33" length="20.80" shape="-4.80,389.60 -4.80,410.40"/>
        <lane id=":A2_0_1" index="1" disallow="pedestrian" speed="8.33" length="20.80" shape="-1.60,389.60 -1.60,410.40"/>
    </edge>
    <edge id=":A2_2" function="internal">
        <lane id=":A2_2_0" index="0" disallow="pedestrian" speed="8.33" length="5.01" shape="-1.60,389.60 -0.89,394.56"/>
    </edge>
    <edge id=":A2_8" function="internal">
        <lane id=":A2_8_0" index="0" disallow="pedestrian" speed="8.33" length="14.34" shape="-0.89,394.56 -0.85,394.85 1.40,398.60 5.15,400.85 10.40,401.60"/>
    </edge>
    <edge id=":A2_3" function="internal">
        <lane id=":A2_3_0" index="0" disallow="pedestrian" speed="6.51" length="4.75" shape="10.40,395.20 7.95,394.85 6.20,393.80 6.08,393.60"/>
    </edge>
    <edge id=":A2_4" function="internal">
        <lane id=":A2_4_0" index="0" disallow="pedestrian" speed="8.33" length="15.31" shape="10.40,398.40 5.15,399.15 1.40,401.40 -0.85,405.15 -1.03,406.40"/>
    </edge>
    <edge id=":A2_9" function="internal">
        <lane id=":A2_9_0" index="0" disallow="pedestrian" speed="6.51" length="4.28" shape="6.08,393.60 5.15,392.05 4.80,389.60"/>
    </edge>
    <edge id=":A2_10" function="internal">
        <lane id=":A2_10_0" index="0" disallow="pedestrian" speed="8.33" length="4.04" shape="-1.03,406.40 -1.60,410.40"/>
    </edge>
    <edge id=":A2_5" function="internal">
        <lane id=":A2_5_0" index="0" disallow="pedestrian" speed="6.51" length="4.75" shape="4.80,410.40 5.15,407.95 6.20,406.20 6.40,406.08"/>
    </edge>
    <edge id=":A2_6" function="internal">
        <lane id=":A2_6_0" index="0" disallow="pedestrian" speed="8.33" length="20.80" shape="4.80,410.40 4.80,389.60"/>
        <lane id=":A2_6_1" index="1" disallow="pedestrian" speed="8.33" length="20.80" shape="1.60,410.40 1.60,389.60"/>
    </edge>
    <edge id=":A2_11" function="internal">
        <lane id=":A2_11_0" index="0" disallow="pedestrian" speed="6.51" length="4.28" shape="6.40,406.08 7.95,405.15 10.40,404.80"/>
    </edge>
    <edge id=":A2_c0" function="crossing" crossingEdges="A2A1 A1A2">
        <lane id=":A2_c0_0" index="0" allow="pedestrian" speed="2.78" length="12.80" width="4.00" shape="6.40,391.60 -6.40,391.60" outlineShape="6.50,-389.60 -6.50,-389.60 -6.40,-393.60 6.40,-393.60 8.51,-393.27 8.18,-393.16 7.40,-392.60 6.84,-391.82 6.51,-390.82"/>
    </edge>
    <edge id=":A2_c1" function="crossing" crossingEdges="A2B2 B2A2">
        <lane id=":A2_c1_0" index="0" allow="pedestrian" speed="2.78" length="12.80" width="4.00" shape="8.40,406.40 8.40,393.60" outlineShape="10.40,-406.40 10.40,-393.60 6.40,-389.60 8.40,-389.60 10.40,-391.60 10.40,-393.60 6.40,-389.60 6.40,-410.40 6.51,-409.18 6.84,-408.18 7.40,-407.40 8.18,-406.84 9.18,-406.51"/>
    </edge>
    <edge id=":A2_c2" function="crossing" crossingEdges="A2A3 A3A2">
        <lane id=":A2_c2_0" index="0" allow="pedestrian" speed="2.78" length="12.80" width="4.00" shape="-6.40,408.40 6.40,408.40" outlineShape="-6.50,-410.40 6.50,-410.40 6.51,-409.18 6.84,-408.18 7.40,-407.40 8.18,-406.84 8.51,-406.73 6.40,-406.40 -6.40,-406.40"/>
    </edge>
    <edge id=":A2_w0" function="walkingarea">
        <lane id=":A2_w0_0" index="0" allow="pedestrian" speed="2.78" length="13.29" width="4.00" shape="-6.40,406.40 -6.40,410.40 -8.40,410.40 -8.40,389.60 -6.40,389.60 -6.40,393.60"/>
    </edge>
    <edge id=":A2_w1" function="walkingarea">
        <lane id=":A2_w1_0" index="0" allow="pedestrian" speed="2.78" length="3.30" width="4.00" shape="6.40,389.60 8.40,389.60 10.40,391.60 10.40,393.60 9.18,393.49 8.18,393.16 7.40,392.60 6.84,391.82 6.51,390.82"/>
    </edge>
    <edge id=":A2_w2" function="walkingarea">
        <lane id=":A2_w2_0" index="0" allow="pedestrian" speed="2.78" length="3.30" width="4.00" shape="10.40,406.40 10.40,408.40 8.40,410.40 6.40,410.40 6.51,409.18 6.84,408.18 7.40,407.40 8.18,406.84 9.18,406.51"/>
    </edge>
    <edge id=":A3_0" function="internal">
        <lane id=":A3_0_0" index="0" disallow="pedestrian" speed="8.33" length="20.80" shape="-4.80,589.60 -4.80,610.40"/>
        <lane id=":A3_0_1" index="1" disallow="pedestrian" speed="8.33" length="20.80" shape="-1.60,589.60 -1.60,610.40"/>
    </edge>
    <edge id=":A3_2" function="internal">
        <lane id=":A3_2_0" index="0" disallow="pedestrian" speed="8.33" length="5.01" shape="-1.60,589.60 -0.89,594.56"/>
    </edge>
    <edge id=":A3_8" function="internal">
        <lane id=":A3_8_0" index="0" disallow="pedestrian" speed="8.33" length="14.34" shape="-0.89,594.56 -0.85,594.85 1.40,598.60 5.15,600.85 10.40,601.60"/>
    </edge>
    <edge id=":A3_3" function="internal">
        <lane id=":A3_3_0" index="0" disallow="pedestrian" speed="6.51" length="4.75" shape="10.40,595.20 7.95,594.85 6.20,593.80 6.08,593.60"/>
    </edge>
    <edge id=":A3_4" function="internal">
        <lane id=":A3_4_0" index="0" disallow="pedestrian" speed="8.33" length="15.31" shape="10.40,598.40 5.15,599.15 1.40,601.40 -0.85,605.15 -1.03,606.40"/>
    </edge>
    <edge id=":A3_9" function="internal">
        <lane id=":A3_9_0" index="0" disallow="pedestrian" speed="6.51" length="4.28" shape="6.08,593.60 5.15,592.05 4.80,589.60"/>
    </edge>
    <edge id=":A3_10" function="internal">
        <lane id=":A3_10_0" index="0" disallow="pedestrian" speed="8.33" length="4.04" shape="-1.03,606.40 -1.60,610.40"/>
    </edge>
    <edge id=":A3_5" function="internal">
        <lane id=":A3_5_0" index="0" disallow="pedestrian" speed="6.51" length="4.75" shape="4.80,610.40 5.15,607.95 6.20,606.20 6.40,606.08"/>
    </edge>
    <edge id=":A3_6" function="internal">
        <lane id=":A3_6_0" index="0" disallow="pedestrian" speed="8.33" length="20.80" shape="4.80,610.40 4.80,589.60"/>
        <lane id=":A3_6_1" index="1" disallow="pedestrian" speed="8.33" length="20.80" shape="1.60,610.40 1.60,589.60"/>
    </edge>
    <edge id=":A3_11" function="internal">
        <lane id=":A3_11_0" index="0" disallow="pedestrian" speed="6.51" length="4.28" shape="6.40,606.08 7.95,605.15 10.40,604.80"/>
    </edge>
    <edge id=":A3_c0" function="crossing" crossingEdges="A3A2 A2A3">
        <lane id=":A3_c0_0" index="0" allow="pedestrian" speed="2.78" length="12.80" width="4.00" shape="6.40,591.60 -6.40,591.60" outlineShape="6.50,-589.60 -6.50,-589.60 -6.40,-593.60 6.40,-593.60 8.51,-593.27 8.18,-593.16 7.40,-592.60 6.84,-591.82 6.51,-590.82"/>
    </edge>
    <edge id=":A3_c1" function="crossing" crossingEdges="A3B3 B3A3">
        <lane id=":A3_c1_0" index="0" allow="pedestrian" speed="2.78" length="12.80" width="4.00" shape="8.40,606.40 8.40,593.60" outlineShape="10.40,-606.40 10.40,-593.60 6.40,-589.60 8.40,-589.60 10.40,-591.60 10.40,-593.60 6.40,-589.60 6.40,-610.40 6.51,-609.18 6.84,-608.18 7.40,-607.40 8.18,-606.84 9.18,-606.51"/>
    </edge>
    <edge id=":A3_c2" function="crossing" crossingEdges="A3A4 A4A3">
        <lane id=":A3_c2_0" index="0" allow="pedestrian" speed="2.78" length="12.80" width="4.00" shape="-6.40,608.40 6.40,608.40" outlineShape="-6.50,-610.40 6.50,-610.40 6.51,-609.18 6.84,-608.18 7.40,-607.40 8.18,-606.84 8.51,-606.73 6.40,-606.40 -6.40,-606.40"/>
    </edge>
    <edge id=":A3_w0" function="walkingarea">
        <lane id=":A3_w0_0" index="0" allow="pedestrian" speed="2.78" length="13.29" width="4.00" shape="-6.40,606.40 -6.40,610.40 -8.40,610.40 -8.40,589.60 -6.40,589.60 -6.40,593.60"/>
    </edge>
    <edge id=":A3_w1" function="walkingarea">
        <lane id=":A3_w1_0" index="0" allow="pedestrian" speed="2.78" length="3.30" width="4.00" shape="6.40,589.60 8.40,589.60 10.40,591.60 10.40,593.60 9.18,593.49 8.18,593.16 7.40,592.60 6.84,591.82 6.51,590.82"/>
    </edge>
    <edge id=":A3_w2" function="walkingarea">
        <lane id=":A3_w2_0" index="0" allow="pedestrian" speed="2.78" length="3.30" width="4.00" shape="10.40,606.40 10.40,608.40 8.40,610.40 6.40,610.40 6.51,609.18 6.84,608.18 7.40,607.40 8.18,606.84 9.18,606.51"/>
    </edge>
    <edge id=":A4_0" function="internal">
        <lane id=":A4_0_0" index="0" disallow="pedestrian" speed="8.33" length="20.80" shape="-4.80,789.60 -4.80,810.40"/>
        <lane id=":A4_0_1" index="1" disallow="pedestrian" speed="8.33" length="20.80" shape="-1.60,789.60 -1.60,810.40"/>
    </edge>
    <edge id=":A4_2" function="internal">
        <lane id=":A4_2_0" index="0" disallow="pedestrian" speed="8.33" length="5.01" shape="-1.60,789.60 -0.89,794.56"/>
    </edge>
    <edge id=":A4_8" function="internal">
        <lane id=":A4_8_0" index="0" disallow="pedestrian" speed="8.33" length="14.34" shape="-0.89,794.56 -0.85,794.85 1.40,798.60 5.15,800.85 10.40,801.60"/>
    </edge>
    <edge id=":A4_3" function="internal">
        <lane id=":A4_3_0" index="0" disallow="pedestrian" speed="6.51" length="4.75" shape="10.40,795.20 7.95,794.85 6.20,793.80 6.08,793.60"/>
    </edge>
    <edge id=":A4_4" function="internal">
        <lane id=":A4_4_0" index="0" disallow="pedestrian" speed="8.33" length="15.31" shape="10.40,798.40 5.15,799.15 1.40,801.40 -0.85,805.15 -1.03,806.40"/>
    </edge>
    <edge id=":A4_9" function="internal">
        <lane id=":A4_9_0" index="0" disallow="pedestrian" speed="6.51" length="4.28" shape="6.08,793.60 5.15,792.05 4.80,789.60"/>
    </edge>
    <edge id=":A4_10" function="internal">
        <lane id=":A4_10_0" index="0" disallow="pedestrian" speed="8.33" length="4.04" shape="-1.03,806.40 -1.60,810.40"/>
    </edge>
    <edge id=":A4_5" function="internal">
        <lane id=":A4_5_0" index="0" disallow="pedestrian" speed="6.51" length="4.75" shape="4.80,810.40 5.15,807.95 6.20,806.20 6.40,806.08"/>
    </edge>
    <edge id=":A4_6" function="internal">
        <lane id=":A4_6_0" index="0" disallow="pedestrian" speed="8.33" length="20.80" shape="4.80,810.40 4.80,789.60"/>
        <lane id=":A4_6_1" index="1" disallow="pedestrian" speed="8.33" length="20.80" shape="1.60,810.40 1.60,789.60"/>
    </edge>
    <edge id=":A4_11" function="internal">
        <lane id=":A4_11_0" index="0" disallow="pedestrian" speed="6.51" length="4.28" shape="6.40,806.08 7.95,805.15 10.40,804.80"/>
    </edge>
    <edge id=":A4_c0" function="crossing" crossingEdges="A4A3 A3A4">
        <lane id=":A4_c0_0" index="0" allow="pedestrian" speed="2.78" length="12.80" width="4.00" shape="6.40,791.60 -6.40,791.60" outlineShape="6.50,-789.60 -6.50,-789.60 -6.40,-793.60 6.40,-793.60 8.51,-793.27 8.18,-793.16 7.40,-792.60 6.84,-791.82 6.51,-790.82"/>
    </edge>
    <edge id=":A4_c1" function="crossing" crossingEdges="A4B4 B4A4">
        <lane id=":A4_c1_0" index="0" allow="pedestrian" speed="2.78" length="12.80" width="4.00" shape="8.40,806.40 8.40,793.60" outlineShape="10.40,-806.40 10.40,-793.60 6.40,-789.60 8.40,-789.60 10.40,-791.60 10.40,-793.60 6.40,-789.60 6.40,-810.40 6.51,-809.18 6.84,-808.18 7.40,-807.40 8.18,-806.84 9.18,-806.51"/>
    </edge>
    <edge id=":A4_c2" function="crossing" crossingEdges="A4A5 A5A4">
        <lane id=":A4_c2_0" index="0" allow="pedestrian" speed="2.78" length="12.80" width="4.00" shape="-6.40,808.40 6.40,808.40" outlineShape="-6.50,-810.40 6.50,-810.40 6.51,-809.18 6.84,-808.18 7.40,-807.40 8.18,-806.84 8.51,-806.73 6.40,-806.40 -6.40,-806.40"/>
    </edge>
    <edge id=":A4_w0" function="walkingarea">
        <lane id=":A4_w0_0" index="0" allow="pedestrian" speed="2.78" length="13.29" width="4.00" shape="-6.40,806.40 -6.40,810.40 -8.40,810.40 -8.40,789.60 -6.40,789.60 -6.40,793.60"/>
    </edge>
    <edge id=":A4_w1" function="walkingarea">
        <lane id=":A4_w1_0" index="0" allow="pedestrian" speed="2.78" length="3.30" width="4.00" shape="6.40,789.60 8.40,789.60 10.40,791.60 10.40,793.60 9.18,793.49 8.18,793.16 7.40,792.60 6.84,791.82 6.51,790.82"/>
    </edge>
    <edge id=":A4_w2" function="walkingarea">
        <lane id=":A4_w2_0" index="0" allow="pedestrian" speed="2.78" length="3.30" width="4.00" shape="10.40,806.40 10.40,808.40 8.40,810.40 6.40,810.40 6.51,809.18 6.84,808.18 7.40,807.40 8.18,806.84 9.18,806.51"/>
    </edge>
    <edge id=":A5_0" function="internal">
        <lane id=":A5_0_0" index="0" disallow="pedestrian" speed="8.33" length="21.29" shape="-4.80,991.60 -3.97,997.37 -1.50,1001.50 2.63,1003.97 8.40,1004.80"/>
        <lane id=":A5_0_1" index="1" disallow="pedestrian" speed="8.33" length="16.13" shape="-1.60,991.60 -0.97,995.98 0.90,999.10 4.03,1000.98 8.40,1001.60"/>
    </edge>
    <edge id=":A5_2" function="internal">
        <lane id=":A5_2_0" index="0" disallow="pedestrian" speed="5.37" length="5.81" shape="8.40,995.20 6.83,994.98 5.70,994.30 5.02,993.17 4.80,991.60"/>
        <lane id=":A5_2_1" index="1" disallow="pedestrian" speed="7.10" length="6.77" shape="8.40,998.40 5.43,997.98 3.30,996.70 2.64,995.60"/>
    </edge>
    <edge id=":A5_4" function="internal">
        <lane id=":A5_4_0" index="0" disallow="pedestrian" speed="7.10" length="4.20" shape="2.64,995.60 2.02,994.57 1.60,991.60"/>
    </edge>
    <edge id=":A5_c0" function="crossing" crossingEdges="A5A4 A4A5">
        <lane id=":A5_c0_0" index="0" allow="pedestrian" speed="2.78" length="12.80" width="4.00" shape="6.40,993.60 -6.40,993.60" outlineShape="6.50,-991.60 -6.50,-991.60 -8.04,-995.60 -8.40,-991.60 -6.40,-991.60 -6.40,-995.60 6.40,-995.60 8.40,-993.60 7.79,-993.54 7.29,-993.38 6.90,-993.10 6.62,-992.71 6.46,-992.21"/>
    </edge>
    <edge id=":A5_w0" function="walkingarea">
        <lane id=":A5_w0_0" index="0" allow="pedestrian" speed="2.78" length="14.94" width="4.00" shape="8.40,1006.40 8.40,1008.40 3.27,1007.93 -0.93,1006.53 -4.20,1004.20 -6.53,1000.93 -7.93,996.73 -8.40,991.60 -6.40,991.60 -5.99,996.12 -4.76,999.82 -2.70,1002.70 0.18,1004.76 3.88,1005.99"/>
    </edge>
    <edge id=":A5_w1" function="walkingarea">
        <lane id=":A5_w1_0" index="0" allow="pedestrian" speed="2.78" length="1.96" width="4.00" shape="6.40,991.60 8.40,991.60 8.40,993.60 7.79,993.54 7.29,993.38 6.90,993.10 6.62,992.71 6.46,992.21"/>
    </edge>
    <edge id=":B0_0" function="internal">
        <lane id=":B0_0_0" index="0" disallow="pedestrian" speed="8.33" length="20.80" shape="210.40,-4.80 189.60,-4.80"/>
        <lane id=":B0_0_1" index="1" disallow="pedestrian" speed="8.33" length="20.80" shape="210.40,-1.60 189.60,-1.60"/>
    </edge>
    <edge id=":B0_2" function="internal">
        <lane id=":B0_2_0" index="0" disallow="pedestrian" speed="8.33" length="5.01" shape="210.40,-1.60 205.44,-0.89"/>
    </edge>
    <edge id=":B0_8" function="internal">
        <lane id=":B0_8_0" index="0" disallow="pedestrian" speed="8.33" length="14.34" shape="205.44,-0.89 205.15,-0.85 201.40,1.40 199.15,5.15 198.40,10.40"/>
    </edge>
    <edge id=":B0_3" function="internal">
        <lane id=":B0_3_0" index="0" disallow="pedestrian" speed="6.51" length="4.75" shape="204.80,10.40 205.15,7.95 206.20,6.20 206.40,6.08"/>
    </edge>
    <edge id=":B0_4" function="internal">
        <lane id=":B0_4_0" index="0" disallow="pedestrian" speed="8.33" length="15.31" shape="201.60,10.40 200.85,5.15 198.60,1.40 194.85,-0.85 193.60,-1.03"/>
    </edge>
    <edge id=":B0_9" function="internal">
        <lane id=":B0_9_0" index="0" disallow="pedestrian" speed="6.51" length="4.28" shape="206.40,6.08 207.95,5.15 210.40,4.80"/>
    </edge>
    <edge id=":B0_10" function="internal">
        <lane id=":B0_10_0" index="0" disallow="pedestrian" speed="8.33" length="4.04" shape="193.60,-1.03 189.60,-1.60"/>
    </edge>
    <edge id=":B0_5" function="internal">
        <lane id=":B0_5_0" index="0" disallow="pedestrian" speed="6.51" length="4.75" shape="189.60,4.80 192.05,5.15 193.80,6.20 193.92,6.40"/>
    </edge>
    <edge id=":B0_6" function="internal">
        <lane id=":B0_6_0" index="0" disallow="pedestrian" speed="8.33" length="20.80" shape="189.60,4.80 210.40,4.80"/>
        <lane id=":B0_6_1" index="1" disallow="pedestrian" speed="8.33" length="20.80" shape="189.60,1.60 210.40,1.60"/>
    </edge>
    <edge id=":B0_11" function="internal">
        <lane id=":B0_11_0" index="0" disallow="pedestrian" speed="6.51" length="4.28" shape="193.92,6.40 194.85,7.95 195.20,10.40"/>
    </edge>
    <edge id=":B0_c0" function="crossing" crossingEdges="B0C0 C0B0">
        <lane id=":B0_c0_0" index="0" allow="pedestrian" speed="2.78" length="12.80" width="4.00" shape="208.40,6.40 208.40,-6.40" outlineShape="210.40,-6.50 210.40,6.50 206.40,6.40 206.40,-6.40 206.73,-8.51 206.84,-8.18 207.40,-7.40 208.18,-6.84 209.18,-6.51"/>
    </edge>
    <edge id=":B0_c1" function="crossing" crossingEdges="B0B1 B1B0">
        <lane id=":B0_c1_0" index="0" allow="pedestrian" speed="2.78" length="12.80" width="4.00" shape="193.60,8.40 206.40,8.40" outlineShape="193.50,-10.40 206.50,-10.40 210.40,-6.40 210.40,-8.40 208.40,-10.40 206.40,-10.40 210.40,-6.40 189.60,-6.40 190.82,-6.51 191.82,-6.84 192.60,-7.40 193.16,-8.18 193.49,-9.18"/>
    </edge>
    <edge id=":B0_c2" function="crossing" crossingEdges="B0A0 A0B0">
        <lane id=":B0_c2_0" index="0" allow="pedestrian" speed="2.78" length="12.80" width="4.00" shape="191.60,-6.40 191.60,6.40" outlineShape="189.60,6.50 189.60,-6.50 190.82,-6.51 191.82,-6.84 192.60,-7.40 193.16,-8.18 193.27,-8.51 193.60,-6.40 193.60,6.40"/>
    </edge>
    <edge id=":B0_w0" function="walkingarea">
        <lane id=":B0_w0_0" index="0" allow="pedestrian" speed="2.78" length="13.29" width="4.00" shape="193.60,-6.40 189.60,-6.40 189.60,-8.40 210.40,-8.40 210.40,-6.40 206.40,-6.40"/>
    </edge>
    <edge id=":B0_w1" function="walkingarea">
        <lane id=":B0_w1_0" index="0" allow="pedestrian" speed="2.78" length="3.30" width="4.00" shape="210.40,6.40 210.40,8.40 208.40,10.40 206.40,10.40 206.51,9.18 206.84,8.18 207.40,7.40 208.18,6.84 209.18,6.51"/>
    </edge>
    <edge id=":B0_w2" function="walkingarea">
        <lane id=":B0_w2_0" index="0" allow="pedestrian" speed="2.78" length="3.30" width="4.00" shape="193.60,10.40 191.60,10.40 189.60,8.40 189.60,6.40 190.82,6.51 191.82,6.84 192.60,7.40 193.16,8.18 193.49,9.18"/>
    </edge>
    <edge id=":B1_0" function="internal">
        <lane id=":B1_0_0" index="0" disallow="pedestrian" speed="6.51" length="4.75" shape="195.20,189.60 194.85,192.05 193.80,193.80 193.60,193.92"/>
    </edge>
    <edge id=":B1_1" function="internal">
        <lane id=":B1_1_0" index="0" disallow="pedestrian" speed="8.33" length="20.80" shape="195.20,189.60 195.20,210.40"/>
        <lane id=":B1_1_1" index="1" disallow="pedestrian" speed="8.33" length="20.80" shape="198.40,189.60 198.40,210.40"/>
    </edge>
    <edge id=":B1_3" function="internal">
        <lane id=":B1_3_0" index="0" disallow="pedestrian" speed="8.33" length="5.01" shape="198.40,189.60 199.11,194.56"/>
    </edge>
    <edge id=":B1_16" function="internal">
        <lane id=":B1_16_0" index="0" disallow="pedestrian" speed="6.51" length="4.28" shape="193.60,193.92 192.05,194.85 189.60,195.20"/>
    </edge>
    <edge id=":B1_17" function="internal">
        <lane id=":B1_17_0" index="0" disallow="pedestrian" speed="8.33" length="14.34" shape="199.11,194.56 199.15,194.85 201.40,198.60 205.15,200.85 210.40,201.60"/>
    </edge>
    <edge id=":B1_4" function="internal">
        <lane id=":B1_4_0" index="0" disallow="pedestrian" speed="6.51" length="4.75" shape="210.40,195.20 207.95,194.85 206.20,193.80 206.08,193.60"/>
    </edge>
    <edge id=":B1_5" function="internal">
        <lane id=":B1_5_0" index="0" disallow="pedestrian" speed="8.33" length="20.80" shape="210.40,195.20 189.60,195.20"/>
        <lane id=":B1_5_1" index="1" disallow="pedestrian" speed="8.33" length="20.80" shape="210.40,198.40 189.60,198.40"/>
    </edge>
    <edge id=":B1_7" function="internal">
        <lane id=":B1_7_0" index="0" disallow="pedestrian" speed="8.33" length="5.01" shape="210.40,198.40 205.44,199.11"/>
    </edge>
    <edge id=":B1_18" function="internal">
        <lane id=":B1_18_0" index="0" disallow="pedestrian" speed="6.51" length="4.28" shape="206.08,193.60 205.15,192.05 204.80,189.60"/>
    </edge>
    <edge id=":B1_19" function="internal">
        <lane id=":B1_19_0" index="0" disallow="pedestrian" speed="8.33" length="14.34" shape="205.44,199.11 205.15,199.15 201.40,201.40 199.15,205.15 198.40,210.40"/>
    </edge>
    <edge id=":B1_8" function="internal">
        <lane id=":B1_8_0" index="0" disallow="pedestrian" speed="6.51" length="4.75" shape="204.80,210.40 205.15,207.95 206.20,206.20 206.40,206.08"/>
    </edge>
    <edge id=":B1_9" function="internal">
        <lane id=":B1_9_0" index="0" disallow="pedestrian" speed="8.33" length="20.80" shape="204.80,210.40 204.80,189.60"/>
        <lane id=":B1_9_1" index="1" disallow="pedestrian" speed="8.33" length="20.80" shape="201.60,210.40 201.60,189.60"/>
    </edge>
    <edge id=":B1_11" function="internal">
        <lane id=":B1_11_0" index="0" disallow="pedestrian" speed="8.33" length="5.01" shape="201.60,210.40 200.89,205.44"/>
    </edge>
    <edge id=":B1_20" function="internal">
        <lane id=":B1_20_0" index="0" disallow="pedestrian" speed="6.51" length="4.28" shape="206.40,206.08 207.95,205.15 210.40,204.80"/>
    </edge>
    <edge id=":B1_21" function="internal">
        <lane id=":B1_21_0" index="0" disallow="pedestrian" speed="8.33" length="14.34" shape="200.89,205.44 200.85,205.15 198.60,201.40 194.85,199.15 189.60,198.40"/>
    </edge>
    <edge id=":B1_12" function="internal">
        <lane id=":B1_12_0" index="0" disallow="pedestrian" speed="6.51" length="4.75" shape="189.60,204.80 192.05,205.15 193.80,206.20 193.92,206.40"/>
    </edge>
    <edge id=":B1_13" function="internal">
        <lane id=":B1_13_0" index="0" disallow="pedestrian" speed="8.33" length="20.80" shape="189.60,204.80 210.40,204.80"/>
        <lane id=":B1_13_1" index="1" disallow="pedestrian" speed="8.33" length="20.80" shape="189.60,201.60 210.40,201.60"/>
    </edge>
    <edge id=":B1_15" function="internal">
        <lane id=":B1_15_0" index="0" disallow="pedestrian" speed="8.33" length="5.01" shape="189.60,201.60 194.56,200.89"/>
    </edge>
    <edge id=":B1_22" function="internal">
        <lane id=":B1_22_0" index="0" disallow="pedestrian" speed="6.51" length="4.28" shape="193.92,206.40 194.85,207.95 195.20,210.40"/>
    </edge>
    <edge id=":B1_23" function="internal">
        <lane id=":B1_23_0" index="0" disallow="pedestrian" speed="8.33" length="14.34" shape="194.56,200.89 194.85,200.85 198.60,198.60 200.85,194.85 201.60,189.60"/>
    </edge>