<?xml version="1.0" encoding="UTF-8"?>

<!-- generated on 2026-01-24T20:12:56.648994+08:00 by Eclipse SUMO netconvert 1.25.0
<netconvertConfiguration xmlns:xsi="http://www.w3.org/2001/XMLSchema-instance" xsi:noNamespaceSchemaLocation="http://sumo.dlr.de/xsd/netconvertConfiguration.xsd">

    <input>
        <sumo-net-file value="bus_5x5_250.net.xml"/>
    </input>

    <output>
        <output-file value="bus_5x5_250_with_ped_staticTLS.net.xml"/>
    </output>

    <processing>
        <geometry.min-radius.fix.railways value="false"/>
        <geometry.avoid-overlap value="false"/>
        <geometry.max-grade.fix value="false"/>
        <offset.disable-normalization value="true"/>
        <lefthand value="1"/>
    </processing>

    <tls_building>
        <tls.guess value="true"/>
        <tls.cycle.time value="90"/>
        <tls.default-type value="static"/>
    </tls_building>

    <junctions>
        <no-turnarounds value="true"/>
        <junctions.corner-detail value="5"/>
        <junctions.limit-turn-speed value="5.50"/>
        <rectangular-lane-cut value="0"/>
    </junctions>

    <pedestrian>
        <sidewalks.guess value="true"/>
        <crossings.guess value="true"/>
        <walkingareas value="0"/>
    </pedestrian>

</netconvertConfiguration>
-->

<net version="1.20" junctionCornerDetail="5" walkingareas="true" lefthand="true" limitTurnSpeed="5.50" avoidOverlap="0" xmlns:xsi="http://www.w3.org/2001/XMLSchema-instance" xsi:noNamespaceSchemaLocation="http://sumo.dlr.de/xsd/net_file.xsd">

    <location netOffset="0.00,-0.00" convBoundary="0.00,0.00,1000.00,1000.00" origBoundary="0.00,0.00,1000.00,1000.00" projParameter="!"/>

    <edge id=":A0_0" function="internal">
        <lane id=":A0_0_0" index="0" disallow="pedestrian" speed="9.69" length="21.29" shape="8.40,-4.80 2.63,-3.97 -1.50,-1.50 -3.97,2.63 -4.80,8.40"/>
        <lane id=":A0_0_1" index="1" disallow="pedestrian" speed="8.49" length="16.13" shape="8.40,-1.60 4.03,-0.97 0.90,0.90 -0.97,4.03 -1.60,8.40"/>
    </edge>
    <edge id=":A0_2" function="internal">
        <lane id=":A0_2_0" index="0" disallow="pedestrian" speed="5.37" length="5.81" shape="4.80,8.40 5.03,6.83 5.70,5.70 6.83,5.03 8.40,4.80"/>
        <lane id=":A0_2_1" index="1" disallow="pedestrian" speed="7.10" length="6.77" shape="1.60,8.40 2.03,5.42 3.30,3.30 4.40,2.64"/>
    </edge>
    <edge id=":A0_4" function="internal">
        <lane id=":A0_4_0" index="0" disallow="pedestrian" speed="7.10" length="4.20" shape="4.40,2.64 5.43,2.02 8.40,1.60"/>
    </edge>
    <edge id=":A0_c0" function="crossing" crossingEdges="A0B0 B0A0">
        <lane id=":A0_c0_0" index="0" allow="pedestrian" speed="2.78" length="12.80" width="4.00" shape="6.40,6.40 6.40,-6.40" outlineShape="8.40,-6.50 8.40,6.40 4.40,8.04 8.40,8.40 8.40,6.40 4.40,6.40 4.40,-6.40 6.40,-8.40 6.46,-7.79 6.62,-7.29 6.90,-6.90 7.29,-6.62 7.79,-6.46"/>
    </edge>
    <edge id=":A0_w0" function="walkingarea">
        <lane id=":A0_w0_0" index="0" allow="pedestrian" speed="2.78" length="14.94" width="4.00" shape="-6.40,8.40 -8.40,8.40 -7.93,3.27 -6.53,-0.93 -4.20,-4.20 -0.93,-6.53 3.27,-7.93 8.40,-8.40 8.40,-6.40 3.88,-5.99 0.18,-4.76 -2.70,-2.70 -4.76,0.18 -5.99,3.88"/>
    </edge>
    <edge id=":A0_w1" function="walkingarea">
        <lane id=":A0_w1_0" index="0" allow="pedestrian" speed="2.78" length="1.96" width="4.00" shape="8.40,6.40 8.40,8.40 6.40,8.40 6.46,7.79 6.62,7.29 6.90,6.90 7.29,6.62 7.79,6.46"/>
    </edge>
    <edge id=":A1_0" function="internal">
        <lane id=":A1_0_0" index="0" disallow="pedestrian" speed="13.89" length="20.80" shape="-4.80,239.60 -4.80,260.40"/>
        <lane id=":A1_0_1" index="1" disallow="pedestrian" speed="13.89" length="20.80" shape="-1.60,239.60 -1.60,260.40"/>
    </edge>
    <edge id=":A1_2" function="internal">
        <lane id=":A1_2_0" index="0" disallow="pedestrian" speed="9.26" length="5.01" shape="-1.60,239.60 -0.89,244.56"/>
    </edge>
    <edge id=":A1_8" function="internal">
        <lane id=":A1_8_0" index="0" disallow="pedestrian" speed="9.26" length="14.34" shape="-0.89,244.56 -0.85,244.85 1.40,248.60 5.15,250.85 10.40,251.60"/>
    </edge>
    <edge id=":A1_3" function="internal">
        <lane id=":A1_3_0" index="0" disallow="pedestrian" speed="6.51" length="4.75" shape="10.40,245.20 7.95,244.85 6.20,243.80 6.08,243.60"/>
    </edge>
    <edge id=":A1_4" function="internal">
        <lane id=":A1_4_0" index="0" disallow="pedestrian" speed="9.26" length="15.31" shape="10.40,248.40 5.15,249.15 1.40,251.40 -0.85,255.15 -1.03,256.40"/>
    </edge>
    <edge id=":A1_9" function="internal">
        <lane id=":A1_9_0" index="0" disallow="pedestrian" speed="6.51" length="4.28" shape="6.08,243.60 5.15,242.05 4.80,239.60"/>
    </edge>
    <edge id=":A1_10" function="internal">
        <lane id=":A1_10_0" index="0" disallow="pedestrian" speed="9.26" length="4.04" shape="-1.03,256.40 -1.60,260.40"/>
    </edge>
    <edge id=":A1_5" function="internal">
        <lane id=":A1_5_0" index="0" disallow="pedestrian" speed="6.51" length="4.75" shape="4.80,260.40 5.15,257.95 6.20,256.20 6.40,256.08"/>
    </edge>
    <edge id=":A1_6" function="internal">
        <lane id=":A1_6_0" index="0" disallow="pedestrian" speed="13.89" length="20.80" shape="4.80,260.40 4.80,239.60"/>
        <lane id=":A1_6_1" index="1" disallow="pedestrian" speed="13.89" length="20.80" shape="1.60,260.40 1.60,239.60"/>
    </edge>
    <edge id=":A1_11" function="internal">
        <lane id=":A1_11_0" index="0" disallow="pedestrian" speed="6.51" length="4.28" shape="6.40,256.08 7.95,255.15 10.40,254.80"/>
    </edge>
    <edge id=":A1_c0" function="crossing" crossingEdges="A1A0 A0A1">
        <lane id=":A1_c0_0" index="0" allow="pedestrian" speed="2.78" length="12.80" width="4.00" shape="6.40,241.60 -6.40,241.60" outlineShape="6.50,-239.60 -6.50,-239.60 -6.40,-243.60 10.40,-243.60 9.18,-243.49 8.18,-243.16 7.40,-242.60 6.84,-241.82 6.51,-240.82"/>
    </edge>
    <edge id=":A1_c1" function="crossing" crossingEdges="A1B1 B1A1">
        <lane id=":A1_c1_0" index="0" allow="pedestrian" speed="2.78" length="12.80" width="4.00" shape="8.40,256.40 8.40,243.60" outlineShape="10.40,-256.40 10.40,-243.50 6.40,-239.60 8.40,-239.60 10.40,-241.60 10.40,-243.60 6.40,-239.60 6.40,-260.40 6.51,-259.18 6.84,-258.18 7.40,-257.40 8.18,-256.84 9.18,-256.51"/>
    </edge>
    <edge id=":A1_c2" function="crossing" crossingEdges="A1A2 A2A1">
        <lane id=":A1_c2_0" index="0" allow="pedestrian" speed="2.78" length="12.80" width="4.00" shape="-6.40,258.40 6.40,258.40" outlineShape="-6.50,-260.40 6.50,-260.40 10.40,-256.40 10.40,-258.40 8.40,-260.40 6.40,-260.40 10.40,-256.40 -6.40,-256.40"/>
    </edge>
    <edge id=":A1_w0" function="walkingarea">
        <lane id=":A1_w0_0" index="0" allow="pedestrian" speed="2.78" length="13.29" width="4.00" shape="-6.40,256.40 -6.40,260.40 -8.40,260.40 -8.40,239.60 -6.40,239.60 -6.40,243.60"/>
    </edge>
    <edge id=":A1_w1" function="walkingarea">
        <lane id=":A1_w1_0" index="0" allow="pedestrian" speed="2.78" length="3.30" width="4.00" shape="6.40,239.60 8.40,239.60 10.40,241.60 10.40,243.60 9.18,243.49 8.18,243.16 7.40,242.60 6.84,241.82 6.51,240.82"/>
    </edge>
    <edge id=":A1_w2" function="walkingarea">
        <lane id=":A1_w2_0" index="0" allow="pedestrian" speed="2.78" length="3.30" width="4.00" shape="10.40,256.40 10.40,258.40 8.40,260.40 6.40,260.40 6.51,259.18 6.84,258.18 7.40,257.40 8.18,256.84 9.18,256.51"/>
    </edge>
    <edge id=":A2_0" function="internal">
        <lane id=":A2_0_0" index="0" disallow="pedestrian" speed="13.89" length="20.80" shape="-4.80,489.60 -4.80,510.40"/>
        <lane id=":A2_0_1" index="1" disallow="pedestrian" speed="13.89" length="20.80" shape="-1.60,489.60 -1.60,510.40"/>
    </edge>
    <edge id=":A2_2" function="internal">
        <lane id=":A2_2_0" index="0" disallow="pedestrian" speed="9.26" length="5.01" shape="-1.60,489.60 -0.89,494.56"/>
    </edge>
    <edge id=":A2_8" function="internal">
        <lane id=":A2_8_0" index="0" disallow="pedestrian" speed="9.26" length="14.34" shape="-0.89,494.56 -0.85,494.85 1.40,498.60 5.15,500.85 10.40,501.60"/>
    </edge>
    <edge id=":A2_3" function="internal">
        <lane id=":A2_3_0" index="0" disallow="pedestrian" speed="6.51" length="4.75" shape="10.40,495.20 7.95,494.85 6.20,493.80 6.08,493.60"/>
    </edge>
    <edge id=":A2_4" function="internal">
        <lane id=":A2_4_0" index="0" disallow="pedestrian" speed="9.26" length="15.31" shape="10.40,498.40 5.15,499.15 1.40,501.40 -0.85,505.15 -1.03,506.40"/>
    </edge>
    <edge id=":A2_9" function="internal">
        <lane id=":A2_9_0" index="0" disallow="pedestrian" speed="6.51" length="4.28" shape="6.08,493.60 5.15,492.05 4.80,489.60"/>
    </edge>
    <edge id=":A2_10" function="internal">
        <lane id=":A2_10_0" index="0" disallow="pedestrian" speed="9.26" length="4.04" shape="-1.03,506.40 -1.60,510.40"/>
    </edge>
    <edge id=":A2_5" function="internal">
        <lane id=":A2_5_0" index="0" disallow="pedestrian" speed="6.51" length="4.75" shape="4.80,510.40 5.15,507.95 6.20,506.20 6.40,506.08"/>
    </edge>
    <edge id=":A2_6" function="internal">
        <lane id=":A2_6_0" index="0" disallow="pedestrian" speed="13.89" length="20.80" shape="4.80,510.40 4.80,489.60"/>
        <lane id=":A2_6_1" index="1" disallow="pedestrian" speed="13.89" length="20.80" shape="1.60,510.40 1.60,489.60"/>
    </edge>
    <edge id=":A2_11" function="internal">
        <lane id=":A2_11_0" index="0" disallow="pedestrian" speed="6.51" length="4.28" shape="6.40,506.08 7.95,505.15 10.40,504.80"/>
    </edge>
    <edge id=":A2_c0" function="crossing" crossingEdges="A2A1 A1A2">
        <lane id=":A2_c0_0" index="0" allow="pedestrian" speed="2.78" length="12.80" width="4.00" shape="6.40,491.60 -6.40,491.60" outlineShape="6.50,-489.60 -6.50,-489.60 -6.40,-493.60 10.40,-493.60 9.18,-493.49 8.18,-493.16 7.40,-492.60 6.84,-491.82 6.51,-490.82"/>
    </edge>
    <edge id=":A2_c1" function="crossing" crossingEdges="A2B2 B2A2">
        <lane id=":A2_c1_0" index="0" allow="pedestrian" speed="2.78" length="12.80" width="4.00" shape="8.40,506.40 8.40,493.60" outlineShape="10.40,-506.40 10.40,-493.60 9.18,-493.49 8.18,-493.16 7.40,-492.60 6.84,-491.82 6.73,-491.49 6.40,-493.60 6.40,-506.40 6.73,-508.51 6.84,-508.18 7.40,-507.40 8.18,-506.84 9.18,-506.51"/>
    </edge>
    <edge id=":A2_c2" function="crossing" crossingEdges="A2A3 A3A2">
        <lane id=":A2_c2_0" index="0" allow="pedestrian" speed="2.78" length="12.80" width="4.00" shape="-6.40,508.40 6.40,508.40" outlineShape="-6.50,-510.40 6.50,-510.40 10.40,-506.40 10.40,-508.40 8.40,-510.40 6.40,-510.40 10.40,-506.40 -6.40,-506.40"/>
    </edge>
    <edge id=":A2_w0" function="walkingarea">
        <lane id=":A2_w0_0" index="0" allow="pedestrian" speed="2.78" length="13.29" width="4.00" shape="-6.40,506.40 -6.40,510.40 -8.40,510.40 -8.40,489.60 -6.40,489.60 -6.40,493.60"/>
    </edge>
    <edge id=":A2_w1" function="walkingarea">
        <lane id=":A2_w1_0" index="0" allow="pedestrian" speed="2.78" length="3.30" width="4.00" shape="6.40,489.60 8.40,489.60 10.40,491.60 10.40,493.60 9.18,493.49 8.18,493.16 7.40,492.60 6.84,491.82 6.51,490.82"/>
    </edge>
    <edge id=":A2_w2" function="walkingarea">
        <lane id=":A2_w2_0" index="0" allow="pedestrian" speed="2.78" length="3.30" width="4.00" shape="10.40,506.40 10.40,508.40 8.40,510.40 6.40,510.40 6.51,509.18 6.84,508.18 7.40,507.40 8.18,506.84 9.18,506.51"/>
    </edge>
    <edge id=":A3_0" function="internal">
        <lane id=":A3_0_0" index="0" disallow="pedestrian" speed="13.89" length="20.80" shape="-4.80,739.60 -4.80,760.40"/>
        <lane id=":A3_0_1" index="1" disallow="pedestrian" speed="13.89" length="20.80" shape="-1.60,739.60 -1.60,760.40"/>
    </edge>
    <edge id=":A3_2" function="internal">
        <lane id=":A3_2_0" index="0" disallow="pedestrian" speed="9.26" length="5.01" shape="-1.60,739.60 -0.89,744.56"/>
    </edge>
    <edge id=":A3_8" function="internal">
        <lane id=":A3_8_0" index="0" disallow="pedestrian" speed="9.26" length="14.34" shape="-0.89,744.56 -0.85,744.85 1.40,748.60 5.15,750.85 10.40,751.60"/>
    </edge>
    <edge id=":A3_3" function="internal">
        <lane id=":A3_3_0" index="0" disallow="pedestrian" speed="6.51" length="4.75" shape="10.40,745.20 7.95,744.85 6.20,743.80 6.08,743.60"/>
    </edge>
    <edge id=":A3_4" function="internal">
        <lane id=":A3_4_0" index="0" disallow="pedestrian" speed="9.26" length="15.31" shape="10.40,748.40 5.15,749.15 1.40,751.40 -0.85,755.15 -1.03,756.40"/>
    </edge>
    <edge id=":A3_9" function="internal">
        <lane id=":A3_9_0" index="0" disallow="pedestrian" speed="6.51" length="4.28" shape="6.08,743.60 5.15,742.05 4.80,739.60"/>
    </edge>
    <edge id=":A3_10" function="internal">
        <lane id=":A3_10_0" index="0" disallow="pedestrian" speed="9.26" length="4.04" shape="-1.03,756.40 -1.60,760.40"/>
    </edge>
    <edge id=":A3_5" function="internal">
        <lane id=":A3_5_0" index="0" disallow="pedestrian" speed="6.51" length="4.75" shape="4.80,760.40 5.15,757.95 6.20,756.20 6.40,756.08"/>
    </edge>
    <edge id=":A3_6" function="internal">
        <lane id=":A3_6_0" index="0" disallow="pedestrian" speed="13.89" length="20.80" shape="4.80,760.40 4.80,739.60"/>
        <lane id=":A3_6_1" index="1" disallow="pedestrian" speed="13.89" length="20.80" shape="1.60,760.40 1.60,739.60"/>
    </edge>
    <edge id=":A3_11" function="internal">
        <lane id=":A3_11_0" index="0" disallow="pedestrian" speed="6.51" length="4.28" shape="6.40,756.08 7.95,755.15 10.40,754.80"/>
    </edge>
    <edge id=":A3_c0" function="crossing" crossingEdges="A3A2 A2A3">
        <lane id=":A3_c0_0" index="0" allow="pedestrian" speed="2.78" length="12.80" width="4.00" shape="6.40,741.60 -6.40,741.60" outlineShape="6.50,-739.60 -6.50,-739.60 -6.40,-743.60 10.40,-743.60 9.18,-743.49 8.18,-743.16 7.40,-742.60 6.84,-741.82 6.51,-740.82"/>
    </edge>
    <edge id=":A3_c1" function="crossing" crossingEdges="A3B3 B3A3">
        <lane id=":A3_c1_0" index="0" allow="pedestrian" speed="2.78" length="12.80" width="4.00" shape="8.40,756.40 8.40,743.60" outlineShape="10.40,-756.40 10.40,-743.60 9.18,-743.49 8.18,-743.16 7.40,-742.60 6.84,-741.82 6.73,-741.49 6.40,-743.60 6.40,-756.40 6.73,-758.51 6.84,-758.18 7.40,-757.40 8.18,-756.84 9.18,-756.51"/>
    </edge>
    <edge id=":A3_c2" function="crossing" crossingEdges="A3A4 A4A3">
        <lane id=":A3_c2_0" index="0" allow="pedestrian" speed="2.78" length="12.80" width="4.00" shape="-6.40,758.40 6.40,758.40" outlineShape="-6.50,-760.40 6.50,-760.40 10.40,-756.40 10.40,-758.40 8.40,-760.40 6.40,-760.40 10.40,-756.40 -6.40,-756.40"/>
    </edge>
    <edge id=":A3_w0" function="walkingarea">
        <lane id=":A3_w0_0" index="0" allow="pedestrian" speed="2.78" length="13.29" width="4.00" shape="-6.40,756.40 -6.40,760.40 -8.40,760.40 -8.40,739.60 -6.40,739.60 -6.40,743.60"/>
    </edge>
    <edge id=":A3_w1" function="walkingarea">
        <lane id=":A3_w1_0" index="0" allow="pedestrian" speed="2.78" length="3.30" width="4.00" shape="6.40,739.60 8.40,739.60 10.40,741.60 10.40,743.60 9.18,743.49 8.18,743.16 7.40,742.60 6.84,741.82 6.51,740.82"/>
    </edge>
    <edge id=":A3_w2" function="walkingarea">
        <lane id=":A3_w2_0" index="0" allow="pedestrian" speed="2.78" length="3.30" width="4.00" shape="10.40,756.40 10.40,758.40 8.40,760.40 6.40,760.40 6.51,759.18 6.84,758.18 7.40,757.40 8.18,756.84 9.18,756.51"/>
    </edge>
    <edge id=":A4_0" function="internal">
        <lane id=":A4_0_0" index="0" disallow="pedestrian" speed="9.69" length="21.29" shape="-4.80,991.60 -3.97,997.37 -1.50,1001.50 2.63,1003.97 8.40,1004.80"/>
        <lane id=":A4_0_1" index="1" disallow="pedestrian" speed="8.49" length="16.13" shape="-1.60,991.60 -0.97,995.98 0.90,999.10 4.03,1000.98 8.40,1001.60"/>
    </edge>
    <edge id=":A4_2" function="internal">
        <lane id=":A4_2_0" index="0" disallow="pedestrian" speed="5.37" length="5.81" shape="8.40,995.20 6.82,994.98 5.70,994.30 5.02,993.17 4.80,991.60"/>
        <lane id=":A4_2_1" index="1" disallow="pedestrian" speed="7.10" length="6.77" shape="8.40,998.40 5.43,997.98 3.30,996.70 2.64,995.60"/>
    </edge>
    <edge id=":A4_4" function="internal">
        <lane id=":A4_4_0" index="0" disallow="pedestrian" speed="7.10" length="4.20" shape="2.64,995.60 2.02,994.57 1.60,991.60"/>
    </edge>
    <edge id=":A4_c0" function="crossing" crossingEdges="A4A3 A3A4">
        <lane id=":A4_c0_0" index="0" allow="pedestrian" speed="2.78" length="12.80" width="4.00" shape="6.40,993.60 -6.40,993.60" outlineShape="6.50,-991.60 -6.50,-991.60 -8.04,-995.60 -8.40,-991.60 -6.40,-991.60 -6.40,-995.60 6.40,-995.60 8.40,-993.60 7.79,-993.54 7.29,-993.38 6.90,-993.10 6.62,-992.71 6.46,-992.21"/>
    </edge>
    <edge id=":A4_w0" function="walkingarea">
        <lane id=":A4_w0_0" index="0" allow="pedestrian" speed="2.78" length="14.94" width="4.00" shape="8.40,1006.40 8.40,1008.40 3.27,1007.93 -0.93,1006.53 -4.20,1004.20 -6.53,1000.93 -7.93,996.73 -8.40,991.60 -6.40,991.60 -5.99,996.12 -4.76,999.82 -2.70,1002.70 0.18,1004.76 3.88,1005.99"/>
    </edge>
    <edge id=":A4_w1" function="walkingarea">
        <lane id=":A4_w1_0" index="0" allow="pedestrian" speed="2.78" length="1.96" width="4.00" shape="6.40,991.60 8.40,991.60 8.40,993.60 7.79,993.54 7.29,993.38 6.90,993.10 6.62,992.71 6.46,992.21"/>
    </edge>
    <edge id=":B0_0" function="internal">
        <lane id=":B0_0_0" index="0" disallow="pedestrian" speed="13.89" length="20.80" shape="260.40,-4.80 239.60,-4.80"/>
        <lane id=":B0_0_1" index="1" disallow="pedestrian" speed="13.89" length="20.80" shape="260.40,-1.60 239.60,-1.60"/>
    </edge>
    <edge id=":B0_2" function="internal">
        <lane id=":B0_2_0" index="0" disallow="pedestrian" speed="9.26" length="5.01" shape="260.40,-1.60 255.44,-0.89"/>
    </edge>
    <edge id=":B0_8" function="internal">
        <lane id=":B0_8_0" index="0" disallow="pedestrian" speed="9.26" length="14.34" shape="255.44,-0.89 255.15,-0.85 251.40,1.40 249.15,5.15 248.40,10.40"/>
    </edge>
    <edge id=":B0_3" function="internal">
        <lane id=":B0_3_0" index="0" disallow="pedestrian" speed="6.51" length="4.75" shape="254.80,10.40 255.15,7.95 256.20,6.20 256.40,6.08"/>
    </edge>
    <edge id=":B0_4" function="internal">
        <lane id=":B0_4_0" index="0" disallow="pedestrian" speed="9.26" length="15.31" shape="251.60,10.40 250.85,5.15 248.60,1.40 244.85,-0.85 243.60,-1.03"/>
    </edge>
    <edge id=":B0_9" function="internal">
        <lane id=":B0_9_0" index="0" disallow="pedestrian" speed="6.51" length="4.28" shape="256.40,6.08 257.95,5.15 260.40,4.80"/>
    </edge>
    <edge id=":B0_10" function="internal">
        <lane id=":B0_10_0" index="0" disallow="pedestrian" speed="9.26" length="4.04" shape="243.60,-1.03 239.60,-1.60"/>
    </edge>
    <edge id=":B0_5" function="internal">
        <lane id=":B0_5_0" index="0" disallow="pedestrian" speed="6.51" length="4.75" shape="239.60,4.80 242.05,5.15 243.80,6.20 243.92,6.40"/>
    </edge>
    <edge id=":B0_6" function="internal">
        <lane id=":B0_6_0" index="0" disallow="pedestrian" speed="13.89" length="20.80" shape="239.60,4.80 260.40,4.80"/>
        <lane id=":B0_6_1" index="1" disallow="pedestrian" speed="13.89" length="20.80" shape="239.60,1.60 260.40,1.60"/>
    </edge>
    <edge id=":B0_11" function="internal">
        <lane id=":B0_11_0" index="0" disallow="pedestrian" speed="6.51" length="4.28" shape="243.92,6.40 244.85,7.95 245.20,10.40"/>
    </edge>
    <edge id=":B0_c0" function="crossing" crossingEdges="B0C0 C0B0">
        <lane id=":B0_c0_0" index="0" allow="pedestrian" speed="2.78" length="12.80" width="4.00" shape="258.40,6.40 258.40,-6.40" outlineShape="260.40,-6.50 260.40,6.50 256.40,6.40 256.40,-10.40 256.51,-9.18 256.84,-8.18 257.40,-7.40 258.18,-6.84 259.18,-6.51"/>
    </edge>
    <edge id=":B0_c1" function="crossing" crossingEdges="B0B1 B1B0">
        <lane id=":B0_c1_0" index="0" allow="pedestrian" speed="2.78" length="12.80" width="4.00" shape="243.60,8.40 256.40,8.40" outlineShape="243.50,-10.40 256.40,-10.40 260.40,-6.40 260.40,-8.40 258.40,-10.40 256.40,-10.40 260.40,-6.40 239.60,-6.40 240.82,-6.51 241.82,-6.84 242.60,-7.40 243.16,-8.18 243.49,-9.18"/>
    </edge>
    <edge id=":B0_c2" function="crossing" crossingEdges="B0A0 A0B0">
        <lane id=":B0_c2_0" index="0" allow="pedestrian" speed="2.78" length="12.80" width="4.00" shape="241.60,-6.40 241.60,6.40" outlineShape="239.60,6.50 239.60,-6.50 243.60,-10.40 241.60,-10.40 239.60,-8.40 239.60,-6.40 243.60,-10.40 243.60,6.40"/>
    </edge>
    <edge id=":B0_w0" function="walkingarea">
        <lane id=":B0_w0_0" index="0" allow="pedestrian" speed="2.78" length="13.29" width="4.00" shape="243.60,-6.40 239.60,-6.40 239.60,-8.40 260.40,-8.40 260.40,-6.40 256.40,-6.40"/>
    </edge>
    <edge id=":B0_w1" function="walkingarea">
        <lane id=":B0_w1_0" index="0" allow="pedestrian" speed="2.78" length="3.30" width="4.00" shape="260.40,6.40 260.40,8.40 258.40,10.40 256.40,10.40 256.51,9.18 256.84,8.18 257.40,7.40 258.18,6.84 259.18,6.51"/>
    </edge>
    <edge id=":B0_w2" function="walkingarea">
        <lane id=":B0_w2_0" index="0" allow="pedestrian" speed="2.78" length="3.30" width="4.00" shape="243.60,10.40 241.60,10.40 239.60,8.40 239.60,6.40 240.82,6.51 241.82,6.84 242.60,7.40 243.16,8.18 243.49,9.18"/>
    </edge>
    <edge id=":B1_0" function="internal">
        <lane id=":B1_0_0" index="0" disallow="pedestrian" speed="6.51" length="4.75" shape="245.20,239.60 244.85,242.05 243.80,243.80 243.60,243.92"/>
    </edge>
    <edge id=":B1_1" function="internal">
        <lane id=":B1_1_0" index="0" disallow="pedestrian" speed="13.89" length="20.80" shape="245.20,239.60 245.20,260.40"/>
        <lane id=":B1_1_1" index="1" disallow="pedestrian" speed="13.89" length="20.80" shape="248.40,239.60 248.40,260.40"/>
    </edge>
    <edge id=":B1_3" function="internal">
        <lane id=":B1_3_0" index="0" disallow="pedestrian" speed="9.26" length="5.01" shape="248.40,239.60 249.11,244.56"/>
    </edge>
    <edge id=":B1_16" function="internal">
        <lane id=":B1_16_0" index="0" disallow="pedestrian" speed="6.51" length="4.28" shape="243.60,243.92 242.05,244.85 239.60,245.20"/>
    </edge>
    <edge id=":B1_17" function="internal">
        <lane id=":B1_17_0" index="0" disallow="pedestrian" speed="9.26" length="14.34" shape="249.11,244.56 249.15,244.85 251.40,248.60 255.15,250.85 260.40,251.60"/>
    </edge>
    <edge id=":B1_4" function="internal">
        <lane id=":B1_4_0" index="0" disallow="pedestrian" speed="6.51" length="4.75" shape="260.40,245.20 257.95,244.85 256.20,243.80 256.08,243.60"/>
    </edge>
    <edge id=":B1_5" function="internal">
        <lane id=":B1_5_0" index="0" disallow="pedestrian" speed="13.89" length="20.80" shape="260.40,245.20 239.60,245.20"/>
        <lane id=":B1_5_1" index="1" disallow="pedestrian" speed="13.89" length="20.80" shape="260.40,248.40 239.60,248.40"/>
    </edge>
    <edge id=":B1_7" function="internal">
        <lane id=":B1_7_0" index="0" disallow="pedestrian" speed="9.26" length="5.01" shape="260.40,248.40 255.44,249.11"/>
    </edge>
    <edge id=":B1_18" function="internal">
        <lane id=":B1_18_0" index="0" disallow="pedestrian" speed="6.51" length="4.28" shape="256.08,243.60 255.15,242.05 254.80,239.60"/>
    </edge>
    <edge id=":B1_19" function="internal">
        <lane id=":B1_19_0" index="0" disallow="pedestrian" speed="9.26" length="14.34" shape="255.44,249.11 255.15,249.15 251.40,251.40 249.15,255.15 248.40,260.40"/>
    </edge>
    <edge id=":B1_8" function="internal">
        <lane id=":B1_8_0" index="0" disallow="pedestrian" speed="6.51" length="4.75" shape="254.80,260.40 255.15,257.95 256.20,256.20 256.40,256.08"/>
    </edge>
    <edge id=":B1_9" function="internal">
        <lane id=":B1_9_0" index="0" disallow="pedestrian" speed="13.89" length="20.80" shape="254.80,260.40 254.80,239.60"/>
        <lane id=":B1_9_1" index="1" disallow="pedestrian" speed="13.89" length="20.80" shape="251.60,260.40 251.60,239.60"/>
    </edge>
    <edge id=":B1_11" function="internal">
        <lane id=":B1_11_0" index="0" disallow="pedestrian" speed="9.26" length="5.01" shape="251.60,260.40 250.89,255.44"/>
    </edge>
    <edge id=":B1_20" function="internal">
        <lane id=":B1_20_0" index="0" disallow="pedestrian" speed="6.51" length="4.28" shape="256.40,256.08 257.95,255.15 260.40,254.80"/>
    </edge>
    <edge id=":B1_21" function="internal">
        <lane id=":B1_21_0" index="0" disallow="pedestrian" speed="9.26" length="14.34" shape="250.89,255.44 250.85,255.15 248.60,251.40 244.85,249.15 239.60,248.40"/>
    </edge>
    <edge id=":B1_12" function="internal">
        <lane id=":B1_12_0" index="0" disallow="pedestrian" speed="6.51" length="4.75" shape="239.60,254.80 242.05,255.15 243.80,256.20 243.92,256.40"/>
    </edge>
    <edge id=":B1_13" function="internal">
        <lane id=":B1_13_0" index="0" disallow="pedestrian" speed="13.89" length="20.80" shape="239.60,254.80 260.40,254.80"/>
        <lane id=":B1_13_1" index="1" disallow="pedestrian" speed="13.89" length="20.80" shape="239.60,251.60 260.40,251.60"/>
    </edge>
    <edge id=":B1_15" function="internal">
        <lane id=":B1_15_0" index="0" disallow="pedestrian" speed="9.26" length="5.01" shape="239.60,251.60 244.56,250.89"/>
    </edge>
    <edge id=":B1_22" function="internal">
        <lane id=":B1_22_0" index="0" disallow="pedestrian" speed="6.51" length="4.28" shape="243.92,256.40 244.85,257.95 245.20,260.40"/>
    </edge>
    <edge id=":B1_23" function="internal">
        <lane id=":B1_23_0" index="0" disallow="pedestrian" speed="9.26" length="14.34" shape="244.56,250.89 244.85,250.85 248.60,248.60 250.85,244.85 251.60,239.60"/>
    </edge>
    <edge id=":B1_c0" function="crossing" crossingEdges="B1B0 B0B1">
        <lane id=":B1_c0_0" index="0" allow="pedestrian" speed="2.78" length="12.80" width="4.00" shape="256.40,241.60 243.60,241.60" outlineShape="256.40,-239.60 243.50,-239.60 239.60,-243.60 239.60,-241.60 241.60,-239.60 243.60,-239.60 239.60,-243.60 260.40,-243.60 259.18,-243.49 258.18,-243.16 257.40,-242.60 256.84,-241.82 256.51,-240.82"/>
    </edge>
    <edge id=":B1_c1" function="crossing" crossingEdges="B1C1 C1B1">
        <lane id=":B1_c1_0" index="0" allow="pedestrian" speed="2.78" length="12.80" width="4.00" shape="258.40,256.40 258.40,243.60" outlineShape="260.40,-256.40 260.40,-243.50 256.40,-239.60 258.40,-239.60 260.40,-241.60 260.40,-243.60 256.40,-239.60 256.40,-260.40 256.51,-259.18 256.84,-258.18 257.40,-257.40 258.18,-256.84 259.18,-256.51"/>
    </edge>
    <edge id=":B1_c2" function="crossing" crossingEdges="B1B2 B2B1">
        <lane id=":B1_c2_0" index="0" allow="pedestrian" speed="2.78" length="12.80" width="4.00" shape="243.60,258.40 256.40,258.40" outlineShape="243.50,-260.40 256.40,-260.40 260.40,-256.40 260.40,-258.40 258.40,-260.40 256.40,-260.40 260.40,-256.40 239.60,-256.40 240.82,-256.51 241.82,-256.84 242.60,-257.40 243.16,-258.18 243.49,-259.18"/>
    </edge>
    <edge id=":B1_c3" function="crossing" crossingEdges="B1A1 A1B1">
        <lane id=":B1_c3_0" index="0" allow="pedestrian" speed="2.78" length="12.80" width="4.00" shape="241.60,243.60 241.60,256.40" outlineShape="239.60,-243.50 239.60,-256.40 243.60,-260.40 241.60,-260.40 239.60,-258.40 239.60,-256.40 243.60,-260.40 243.60,-239.60 243.49,-240.82 243.16,-241.82 242.60,-242.60 241.82,-243.16 240.82,-243.49"/>
    </edge>
    <edge id=":B1_w0" function="walkingarea">
        <lane id=":B1_w0_0" index="0" allow="pedestrian" speed="2.78" length="3.30" width="4.00" shape="239.60,243.60 239.60,241.60 241.60,239.60 243.60,239.60 243.49,240.82 243.16,241.82 242.60,242.60 241.82,243.16 240.82,243.49"/>
    </edge>
    <edge id=":B1_w1" function="walkingarea">
        <lane id=":B1_w1_0" index="0" allow="pedestrian" speed="2.78" length="3.30" width="4.00" shape="256.40,239.60 258.40,239.60 260.40,241.60 260.40,243.60 259.18,243.49 258.18,243.16 257.40,242.60 256.84,241.82 256.51,240.82"/>
    </edge>
    <edge id=":B1_w2" function="walkingarea">
        <lane id=":B1_w2_0" index="0" allow="pedestrian" speed="2.78" length="3.30" width="4.00" shape="260.40,256.40 260.40,258.40 258.40,260.40 256.40,260.40 256.51,259.18 256.84,258.18 257.40,257.40 258.18,256.84 259.18,256.51"/>
    </edge>
    <edge id=":B1_w3" function="walkingarea">
        <lane id=":B1_w3_0" index="0" allow="pedestrian" speed="2.78" length="3.30" width="4.00" shape="243.60,260.40 241.60,260.40 239.60,258.40 239.60,256.40 240.82,256.51 241.82,256.84 242.60,257.40 243.16,258.18 243.49,259.18"/>
    </edge>
    <edge id=":B2_0" function="internal">
        <lane id=":B2_0_0" index="0" disallow="pedestrian" speed="6.51" length="4.75" shape="245.20,489.60 244.85,492.05 243.80,493.80 243.60,493.92"/>
    </edge>
    <edge id=":B2_1" function="internal">
        <lane id=":B2_1_0" index="0" disallow="pedestrian" speed="13.89" length="20.80" shape="245.20,489.60 245.20,510.40"/>
        <lane id=":B2_1_1" index="1" disallow="pedestrian" speed="13.89" length="20.80" shape="248.40,489.60 248.40,510.40"/>
    </edge>
    <edge id=":B2_3" function="internal">
        <lane id=":B2_3_0" index="0" disallow="pedestrian" speed="9.26" length="5.01" shape="248.40,489.60 249.11,494.56"/>
    </edge>
    <edge id=":B2_16" function="internal">
        <lane id=":B2_16_0" index="0" disallow="pedestrian" speed="6.51" length="4.28" shape="243.60,493.92 242.05,494.85 239.60,495.20"/>
    </edge>
    <edge id=":B2_17" function="internal">
        <lane id=":B2_17_0" index="0" disallow="pedestrian" speed="9.26" length="14.34" shape="249.11,494.56 249.15,494.85 251.40,498.60 255.15,500.85 260.40,501.60"/>
    </edge>