<?xml version="1.0" encoding="UTF-8"?>

<!-- generated on 2026-02-10 00:24:55.493006 by Eclipse SUMO randomTrips.py v1_25_0+0000-ac6c5a6752d
<configuration>
    <net-file value="bus_5x5_250_with_ped_staticTLS.net.xml"/>
    <additional-files value="bus_5x5.add.xml"/>
    <output-trip-file value="D:\SUMO\Bus\passengers_seed26_high_drt.rou.xml"/>
    <persontrips value="True"/>
    <from-stops value="busStop"/>
    <to-stops value="busStop"/>
    <trip-attributes value="modes=&quot;taxi&quot;"/>
    <seed value="1026"/>
    <min-distance value="700.0"/>
    <period value="15.0"/>
    <binomial value="4"/>
</configuration>
-->

<!-- generated on 2026-02-10T00:24:55.351122+08:00 by Eclipse SUMO duarouter 1.25.0
<duarouterConfiguration xmlns:xsi="http://www.w3.org/2001/XMLSchema-instance" xsi:noNamespaceSchemaLocation="http://sumo.dlr.de/xsd/duarouterConfiguration.xsd">

    <input>
        <net-file value="bus_5x5_250_with_ped_staticTLS.net.xml"/>
        <additional-files value="bus_5x5.add.xml"/>
        <route-files value="D:\SUMO\Bus\passengers_seed26_high_drt.rou.xml"/>
    </input>

    <output>
        <output-file value="routes.rou.xml"/>
        <alternatives-output value="NUL"/>
    </output>

    <time>
        <begin value="0.0"/>
        <end value="3600.0"/>
    </time>

    <report>
        <no-warnings value="true"/>
        <ignore-errors value="true"/>
        <no-step-log value="true"/>
    </report>

</duarouterConfiguration>
-->

<routes xmlns:xsi="http://www.w3.org/2001/XMLSchema-instance" xsi:noNamespaceSchemaLocation="http://sumo.dlr.de/xsd/routes_file.xsd">
    <person id="0" depart="4.00">
        <stop busStop="bs_12" duration="0.00"/>
        <walk edges="A0A1" arrivalPos="115.00"/>
        <ride from="A0A1" to="C1D1" arrivalPos="115.00" lines="taxi"/>
        <walk edges="D1D0" busStop="bs_63"/>
    </person>
    <person id="1" depart="31.00">
        <stop busStop="bs_9" duration="0.00"/>
        <walk edges="D0C0" arrivalPos="115.00"/>
        <ride from="D0C0" to="B2B3" arrivalPos="115.00" lines="taxi"/>
        <walk edges="B4B3" busStop="bs_52"/>
    </person>
    <person id="2" depart="31.00">
        <stop busStop="bs_65" duration="0.00"/>
        <walk edges="A3B3" arrivalPos="115.00"/>
        <ride from="A3B3" to="C2C1" arrivalPos="115.00" lines="taxi"/>
        <walk edges="D1C1" busStop="bs_77"/>
    </person>
    <person id="3" depart="38.00">
        <stop busStop="bs_44" duration="0.00"/>
        <walk edges="E2D2" arrivalPos="115.00"/>
        <ride from="E2D2" to="B2B3" arrivalPos="115.00" lines="taxi"/>
        <walk edges="A3B3" busStop="bs_65"/>
    </person>
    <person id="4" depart="65.00">
        <stop busStop="bs_72" duration="0.00"/>
        <walk edges="A1B1" arrivalPos="115.00"/>
        <ride from="A1B1" to="B3B4" arrivalPos="115.00" lines="taxi"/>
        <walk edges="C4B4" busStop="bs_31"/>
    </person>
    <person id="5" depart="79.00">
        <stop busStop="bs_71" duration="0.00"/>
        <walk edges="B3A3" arrivalPos="115.00"/>
        <ride from="B3A3" to="D2D3" arrivalPos="115.00" lines="taxi"/>
        <walk edges="E3D3" busStop="bs_68"/>
    </person>
    <person id="6" depart="110.00">
        <stop busStop="bs_4" duration="0.00"/>
        <walk edges="E4E3" arrivalPos="115.00"/>
        <ride from="E4E3" to="D2C2" arrivalPos="115.00" lines="taxi"/>
        <walk edges="C1C2" busStop="bs_33"/>
    </person>
    <person id="7" depart="113.00">
        <stop busStop="bs_47" duration="0.00"/>
        <walk edges="B2A2" arrivalPos="115.00"/>
        <ride from="B2A2" to="D3E3" arrivalPos="115.00" lines="taxi"/>
        <walk edges="E3E2" busStop="bs_5"/>
    </person>
    <person id="8" depart="119.00">
        <stop busStop="bs_17" duration="0.00"/>
        <walk edges="A4A3" arrivalPos="115.00"/>
        <ride from="A4A3" to="D2E2" arrivalPos="115.00" lines="taxi"/>
        <walk edges="E1E2" busStop="bs_26"/>
    </person>
    <person id="9" depart="131.00">
        <stop busStop="bs_72" duration="0.00"/>
        <walk edges="A1B1" arrivalPos="115.00"/>
        <ride from="A1B1" to="E2E3" arrivalPos="115.00" lines="taxi"/>
        <walk edges="E3E4" busStop="bs_28"/>
    </person>
    <person id="10" depart="136.00">
        <stop busStop="bs_0" duration="0.00"/>
        <walk edges="A4B4" arrivalPos="115.00"/>
        <ride from="A4B4" to="B1A1" arrivalPos="115.00" lines="taxi"/>
        <walk edges="A0A1" busStop="bs_12"/>
    </person>
    <person id="11" depart="145.00">
        <stop busStop="bs_7" duration="0.00"/>
        <walk edges="E1E0" arrivalPos="115.00"/>
        <ride from="E1E0" to="B0B1" arrivalPos="115.00" lines="taxi"/>
        <walk edges="A1B1" busStop="bs_72"/>
    </person>
    <person id="12" depart="159.00">
        <stop busStop="bs_53" duration="0.00"/>
        <walk edges="B3B2" arrivalPos="115.00"/>
        <ride from="B3B2" to="D2E2" arrivalPos="115.00" lines="taxi"/>
        <walk edges="E2E1" busStop="bs_6"/>
    </person>
    <person id="13" depart="163.00">
        <stop busStop="bs_31" duration="0.00"/>
        <walk edges="C4B4" arrivalPos="115.00"/>
        <ride from="C4B4" to="B2B1" arrivalPos="115.00" lines="taxi"/>
        <walk edges="A1B1" busStop="bs_72"/>
    </person>
    <person id="14" depart="189.00">
        <stop busStop="bs_16" duration="0.00"/>
        <walk edges="B4A4" arrivalPos="115.00"/>
        <ride from="B4A4" to="A2A1" arrivalPos="115.00" lines="taxi"/>
        <walk edges="A0A1" busStop="bs_12"/>
    </person>
    <person id="15" depart="208.00">
        <stop busStop="bs_55" duration="0.00"/>
        <walk edges="B1B0" arrivalPos="115.00"/>
        <ride from="B1B0" to="D3D4" arrivalPos="115.00" lines="taxi"/>
        <walk edges="E4D4" busStop="bs_29"/>
    </person>
    <person id="16" depart="269.00">
        <stop busStop="bs_52" duration="0.00"/>
        <walk edges="B4B3" arrivalPos="115.00"/>
        <ride from="B4B3" to="B1A1" arrivalPos="115.00" lines="taxi"/>
        <walk edges="A1A0" busStop="bs_20"/>
    </person>
    <person id="17" depart="269.00">
        <stop busStop="bs_20" duration="0.00"/>
        <walk edges="A1A0" arrivalPos="115.00"/>
        <ride from="A1A0" to="B3A3" arrivalPos="115.00" lines="taxi"/>
        <walk edges="A4A3" busStop="bs_17"/>
    </person>
    <person id="18" depart="292.00">
        <stop busStop="bs_59" duration="0.00"/>
        <walk edges="D3D4" arrivalPos="115.00"/>
        <ride from="D3D4" to="B4A4" arrivalPos="115.00" lines="taxi"/>
        <walk edges="A3A4" busStop="bs_15"/>
    </person>
    <person id="19" depart="299.00">
        <stop busStop="bs_59" duration="0.00"/>
        <walk edges="D3D4" arrivalPos="115.00"/>
        <ride from="D3D4" to="C1C0" arrivalPos="115.00" lines="taxi"/>
        <walk edges="C0B0" busStop="bs_10"/>
    </person>
    <person id="20" depart="308.00">
        <stop busStop="bs_15" duration="0.00"/>
        <walk edges="A3A4" arrivalPos="115.00"/>
        <ride from="A3A4" to="D3D2" arrivalPos="115.00" lines="taxi"/>
        <walk edges="D2D1" busStop="bs_62"/>
    </person>
    <person id="21" depart="320.00">
        <stop busStop="bs_15" duration="0.00"/>
        <walk edges="A3A4" arrivalPos="115.00"/>
        <ride from="A3A4" to="D2D1" arrivalPos="115.00" lines="taxi"/>
        <walk edges="D1E1" busStop="bs_75"/>
    </person>
    <person id="22" depart="324.00">
        <stop busStop="bs_40" duration="0.00"/>
        <walk edges="A2B2" arrivalPos="115.00"/>
        <ride from="A2B2" to="C2C1" arrivalPos="115.00" lines="taxi"/>
        <walk edges="C0C1" busStop="bs_32"/>
    </person>
    <person id="23" depart="330.00">
        <stop busStop="bs_44" duration="0.00"/>
        <walk edges="E2D2" arrivalPos="115.00"/>
        <ride from="E2D2" to="B2B1" arrivalPos="115.00" lines="taxi"/>
        <walk edges="B1B0" busStop="bs_55"/>
    </person>
    <person id="24" depart="331.00">
        <stop busStop="bs_77" duration="0.00"/>
        <walk edges="D1C1" arrivalPos="115.00"/>
        <ride from="D1C1" to="C4D4" arrivalPos="115.00" lines="taxi"/>
        <walk edges="D4E4" busStop="bs_3"/>
    </person>
    <person id="25" depart="351.00">
        <stop busStop="bs_68" duration="0.00"/>
        <walk edges="E3D3" arrivalPos="115.00"/>
        <ride from="E3D3" to="A4B4" arrivalPos="45.00" lines="taxi"/>
        <walk edges="A4B4" busStop="bs_0"/>
    </person>
    <person id="26" depart="387.00">
        <stop busStop="bs_53" duration="0.00"/>
        <walk edges="B3B2" arrivalPos="115.00"/>
        <ride from="B3B2" to="D2E2" arrivalPos="115.00" lines="taxi"/>
        <walk edges="E1E2" busStop="bs_26"/>
    </person>
    <person id="27" depart="388.00">
        <stop busStop="bs_18" duration="0.00"/>
        <walk edges="A3A2" arrivalPos="115.00"/>
        <ride from="A3A2" to="A0B0" arrivalPos="115.00" lines="taxi"/>
        <walk edges="C0B0" busStop="bs_10"/>
    </person>
    <person id="28" depart="388.00">
        <stop busStop="bs_26" duration="0.00"/>
        <walk edges="E1E2" arrivalPos="115.00"/>
        <ride from="E1E2" to="E3E4" arrivalPos="115.00" lines="taxi"/>
        <walk edges="E4D4" busStop="bs_29"/>
    </person>
    <person id="29" depart="405.00">
        <stop busStop="bs_76" duration="0.00"/>
        <walk edges="E1D1" arrivalPos="115.00"/>
        <ride from="E1D1" to="B1B2" arrivalPos="115.00" lines="taxi"/>
        <walk edges="A2B2" busStop="bs_40"/>
    </person>
    <person id="30" depart="412.00">
        <stop busStop="bs_67" duration="0.00"/>
        <walk edges="D3E3" arrivalPos="115.00"/>
        <ride from="D3E3" to="D0C0" arrivalPos="115.00" lines="taxi"/>
        <walk edges="B0C0" busStop="bs_22"/>
    </person>
    <person id="31" depart="416.00">
        <stop busStop="bs_38" duration="0.00"/>
        <walk edges="C2C1" arrivalPos="115.00"/>
        <ride from="C2C1" to="A4B4" arrivalPos="45.00" lines="taxi"/>
        <walk edges="A4B4" busStop="bs_0"/>
    </person>
    <person id="32" depart="431.00">
        <stop busStop="bs_56" duration="0.00"/>
        <walk edges="D0D1" arrivalPos="115.00"/>
        <ride from="D0D1" to="C2B2" arrivalPos="115.00" lines="taxi"/>
        <walk edges="A2B2" busStop="bs_40"/>
    </person>
    <person id="33" depart="450.00">
        <stop busStop="bs_32" duration="0.00"/>
        <walk edges="C0C1" arrivalPos="115.00"/>
        <ride from="C0C1" to="C2C3" arrivalPos="115.00" lines="taxi"/>
        <walk edges="C3B3" busStop="bs_70"/>
    </person>
    <person id="34" depart="466.00">
        <stop busStop="bs_20" duration="0.00"/>
        <walk edges="A1A0" arrivalPos="115.00"/>
        <ride from="A1A0" to="C3C4" arrivalPos="115.00" lines="taxi"/>
        <walk edges="C4D4" busStop="bs_2"/>
    </person>
    <person id="35" depart="470.00">
        <stop busStop="bs_40" duration="0.00"/>
        <walk edges="A2B2" arrivalPos="115.00"/>
        <ride from="A2B2" to="C2D2" arrivalPos="115.00" lines="taxi"/>
        <walk edges="D2D1" busStop="bs_62"/>
    </person>
    <person id="36" depart="485.00">
        <stop busStop="bs_0" duration="0.00"/>
        <walk edges="A4B4" arrivalPos="115.00"/>
        <ride from="A4B4" to="D2D1" arrivalPos="115.00" lines="taxi"/>
        <walk edges="D1D0" busStop="bs_63"/>
    </person>
    <person id="37" depart="488.00">
        <stop busStop="bs_3" duration="0.00"/>
        <walk edges="D4E4" arrivalPos="115.00"/>
        <ride from="D4E4" to="B1A1" arrivalPos="115.00" lines="taxi"/>
        <walk edges="A1A0" busStop="bs_20"/>
    </person>
    <person id="38" depart="495.00">
        <stop busStop="bs_40" duration="0.00"/>
        <walk edges="A2B2" arrivalPos="115.00"/>
        <ride from="A2B2" to="B1B0" arrivalPos="115.00" lines="taxi"/>
        <walk edges="C0B0" busStop="bs_10"/>
    </person>
    <person id="39" depart="502.00">
        <stop busStop="bs_71" duration="0.00"/>
        <walk edges="B3A3" arrivalPos="115.00"/>
        <ride from="B3A3" to="C0D0" arrivalPos="115.00" lines="taxi"/>
        <walk edges="E0D0" busStop="bs_8"/>
    </person>
    <person id="40" depart="511.00">
        <stop busStop="bs_26" duration="0.00"/>
        <walk edges="E1E2" arrivalPos="115.00"/>
        <ride from="E1E2" to="C4B4" arrivalPos="115.00" lines="taxi"/>
        <walk edges="B4A4" busStop="bs_16"/>
    </person>
    <person id="41" depart="550.00">
        <stop busStop="bs_2" duration="0.00"/>
        <walk edges="C4D4" arrivalPos="115.00"/>
        <ride from="C4D4" to="D0C0" arrivalPos="115.00" lines="taxi"/>
        <walk edges="B0C0" busStop="bs_22"/>
    </person>
    <person id="42" depart="563.00">
        <stop busStop="bs_64" duration="0.00"/>
        <walk edges="B3C3" arrivalPos="115.00"/>
        <ride from="B3C3" to="D2D1" arrivalPos="115.00" lines="taxi"/>
        <walk edges="D1D0" busStop="bs_63"/>
    </person>
    <person id="43" depart="637.00">
        <stop busStop="bs_10" duration="0.00"/>
        <walk edges="C0B0" arrivalPos="115.00"/>
        <ride from="C0B0" to="B3B4" arrivalPos="115.00" lines="taxi"/>
        <walk edges="B4C4" busStop="bs_1"/>
    </person>
    <person id="44" depart="652.00">
        <stop busStop="bs_7" duration="0.00"/>
        <walk edges="E1E0" arrivalPos="115.00"/>
        <ride from="E1E0" to="C2C3" arrivalPos="115.00" lines="taxi"/>
        <walk edges="C3C4" busStop="bs_35"/>
    </person>
    <person id="45" depart="659.00">
        <stop busStop="bs_5" duration="0.00"/>
        <walk edges="E3E2 E2E1 E0E1" busStop="bs_25"/>
    </person>
    <person id="46" depart="678.00">
        <stop busStop="bs_56" duration="0.00"/>
        <walk edges="D0D1" arrivalPos="115.00"/>
        <ride from="D0D1" to="C2B2" arrivalPos="115.00" lines="taxi"/>
        <walk edges="B3B2" busStop="bs_53"/>
    </person>
    <person id="47" depart="683.00">
        <stop busStop="bs_47" duration="0.00"/>
        <walk edges="B2A2" arrivalPos="115.00"/>
        <ride from="B2A2" to="D0E0" arrivalPos="45.00" lines="taxi"/>
        <walk edges="D0E0" busStop="bs_24"/>
    </person>
    <person id="48" depart="691.00">
        <stop busStop="bs_7" duration="0.00"/>
        <walk edges="E1E0" arrivalPos="115.00"/>
        <ride from="E1E0" to="A2A3" arrivalPos="115.00" lines="taxi"/>
        <walk edges="A3A4" busStop="bs_15"/>
    </person>
    <person id="49" depart="721.00">
        <stop busStop="bs_47" duration="0.00"/>
        <walk edges="B2A2" arrivalPos="115.00"/>
        <ride from="B2A2" to="D1E1" arrivalPos="115.00" lines="taxi"/>
        <walk edges="E0E1" busStop="bs_25"/>
    </person>
    <person id="50" depart="762.00">
        <stop busStop="bs_36" duration="0.00"/>
        <walk edges="C4C3" arrivalPos="115.00"/>
        <ride from="C4C3" to="D1E1" arrivalPos="115.00" lines="taxi"/>
        <walk edges="E0E1" busStop="bs_25"/>
    </person>
    <person id="51" depart="771.00">
        <stop busStop="bs_6" duration="0.00"/>
        <walk edges="E2E1" arrivalPos="115.00"/>
        <ride from="E2E1" to="C3C4" arrivalPos="115.00" lines="taxi"/>
        <walk edges="B4C4" busStop="bs_1"/>
    </person>
    <person id="52" depart="794.00">
        <stop busStop="bs_2" duration="0.00"/>
        <walk edges="C4D4" arrivalPos="115.00"/>
        <ride from="C4D4" to="D0C0" arrivalPos="115.00" lines="taxi"/>
        <walk edges="C0B0" busStop="bs_10"/>
    </person>
    <person id="53" depart="795.00">
        <stop busStop="bs_10" duration="0.00"/>
        <walk edges="C0B0" arrivalPos="115.00"/>
        <ride from="C0B0" to="C2D2" arrivalPos="115.00" lines="taxi"/>
        <walk edges="D3D2" busStop="bs_61"/>
    </person>
    <person id="54" depart="814.00">
        <stop busStop="bs_19" duration="0.00"/>
        <walk edges="A2A1" arrivalPos="115.00"/>
        <ride from="A2A1" to="C1D1" arrivalPos="115.00" lines="taxi"/>
        <walk edges="E1D1" busStop="bs_76"/>
    </person>
    <person id="55" depart="819.00">
        <stop busStop="bs_1" duration="0.00"/>
        <walk edges="B4C4" arrivalPos="115.00"/>
        <ride from="B4C4" to="D0E0" arrivalPos="45.00" lines="taxi"/>
        <walk edges="D0E0" busStop="bs_24"/>
    </person>
    <person id="56" depart="822.00">
        <stop busStop="bs_41" duration="0.00"/>
        <walk edges="B2C2" arrivalPos="115.00"/>
        <ride from="B2C2" to="D2D1" arrivalPos="115.00" lines="taxi"/>
        <walk edges="D0D1" busStop="bs_56"/>
    </person>
    <person id="57" depart="831.00">
        <stop busStop="bs_36" duration="0.00"/>
        <walk edges="C4C3" arrivalPos="115.00"/>
        <ride from="C4C3" to="B1A1" arrivalPos="115.00" lines="taxi"/>
        <walk edges="A0A1" busStop="bs_12"/>
    </person>
    <person id="58" depart="851.00">
        <stop busStop="bs_55" duration="0.00"/>
        <walk edges="B1B0" arrivalPos="115.00"/>
        <ride from="B1B0" to="C2C3" arrivalPos="115.00" lines="taxi"/>
        <walk edges="C4C3" busStop="bs_36"/>
    </person>
    <person id="59" depart="857.00">
        <stop busStop="bs_52" duration="0.00"/>
        <walk edges="B4B3" arrivalPos="115.00"/>
        <ride from="B4B3" to="B1A1" arrivalPos="115.00" lines="taxi"/>
        <walk edges="A0A1" busStop="bs_12"/>
    </person>
    <person id="60" depart="867.00">
        <stop busStop="bs_3" duration="0.00"/>
        <walk edges="D4E4" arrivalPos="115.00"/>
        <ride from="D4E4" to="D1C1" arrivalPos="115.00" lines="taxi"/>
        <walk edges="C1C0" busStop="bs_39"/>
    </person>
    <person id="61" depart="869.00">
        <stop busStop="bs_43" duration="0.00"/>
        <walk edges="D2E2" arrivalPos="115.00"/>
        <ride from="D2E2" to="B3A3" arrivalPos="115.00" lines="taxi"/>
        <walk edges="A4A3" busStop="bs_17"/>
    </person>
    <person id="62" depart="871.00">
        <stop busStop="bs_7" duration="0.00"/>
        <walk edges="E1E0" arrivalPos="115.00"/>
        <ride from="E1E0" to="A2A3" arrivalPos="115.00" lines="taxi"/>
        <walk edges="A3A4" busStop="bs_15"/>
    </person>
    <person id="63" depart="883.00">
        <stop busStop="bs_47" duration="0.00"/>
        <walk edges="B2A2" arrivalPos="115.00"/>
        <ride from="B2A2" to="C0D0" arrivalPos="115.00" lines="taxi"/>
        <walk edges="E0D0" busStop="bs_8"/>
    </person>
    <person id="64" depart="921.00">
        <stop busStop="bs_31" duration="0.00"/>
        <walk edges="C4B4" arrivalPos="115.00"/>
        <ride from="C4B4" to="B3B2" arrivalPos="115.00" lines="taxi"/>
        <walk edges="B1B2" busStop="bs_49"/>
    </person>
    <person id="65" depart="947.00">
        <stop busStop="bs_56" duration="0.00"/>
        <walk edges="D0D1" arrivalPos="115.00"/>
        <ride from="D0D1" to="D2D3" arrivalPos="115.00" lines="taxi"/>
        <walk edges="D3D4" busStop="bs_59"/>
    </person>
    <person id="66" depart="955.00">
        <stop busStop="bs_31" duration="0.00"/>
        <walk edges="C4B4" arrivalPos="115.00"/>
        <ride from="C4B4" to="D3E3" arrivalPos="115.00" lines="taxi"/>
        <walk edges="E2E3" busStop="bs_27"/>
    </person>
    <person id="67" depart="957.00">
        <stop busStop="bs_15" duration="0.00"/>
        <walk edges="A3A4" arrivalPos="115.00"/>
        <ride from="A3A4" to="B1B0" arrivalPos="115.00" lines="taxi"/>
        <walk edges="B0A0" busStop="bs_11"/>
    </person>
    <person id="68" depart="972.00">
        <stop busStop="bs_5" duration="0.00"/>
        <walk edges="E3E2" arrivalPos="115.00"/>
        <ride from="E3E2" to="A4B4" arrivalPos="45.00" lines="taxi"/>
        <walk edges="A4B4" busStop="bs_0"/>
    </person>
    <person id="69" depart="1000.00">
        <stop busStop="bs_2" duration="0.00"/>
        <walk edges="C4D4" arrivalPos="115.00"/>
        <ride from="C4D4" to="E2E1" arrivalPos="115.00" lines="taxi"/>
        <walk edges="E1E0" busStop="bs_7"/>
    </person>
    <person id="70" depart="1012.00">
        <stop busStop="bs_28" duration="0.00"/>
        <walk edges="E3E4" arrivalPos="115.00"/>
        <ride from="E3E4" to="C1C0" arrivalPos="115.00" lines="taxi"/>
        <walk edges="B0C0" busStop="bs_22"/>
    </person>
    <person id="71" depart="1017.00">
        <stop busStop="bs_73" duration="0.00"/>
        <walk edges="B1C1" arrivalPos="115.00"/>
        <ride from="B1C1" to="A4B4" arrivalPos="45.00" lines="taxi"/>
        <walk edges="A4B4" busStop="bs_0"/>
    </person>
    <person id="72" depart="1019.00">
        <stop busStop="bs_78" duration="0.00"/>
        <walk edges="C1B1" arrivalPos="115.00"/>
        <ride from="C1B1" to="B3C3" arrivalPos="115.00" lines="taxi"/>
        <walk edges="C4C3" busStop="bs_36"/>
    </person>
    <person id="73" depart="1023.00">
        <stop busStop="bs_71" duration="0.00"/>
        <walk edges="B3A3" arrivalPos="115.00"/>
        <ride from="B3A3" to="A0B0" arrivalPos="115.00" lines="taxi"/>
        <walk edges="C0B0" busStop="bs_10"/>
    </person>
    <person id="74" depart="1038.00">
        <stop busStop="bs_75" duration="0.00"/>
        <walk edges="D1E1" arrivalPos="115.00"/>
        <ride from="D1E1" to="C4B4" arrivalPos="115.00" lines="taxi"/>
        <walk edges="B4A4" busStop="bs_16"/>
    </person>
    <person id="75" depart="1050.00">
        <stop busStop="bs_70" duration="0.00"/>
        <walk edges="C3B3" arrivalPos="115.00"/>
        <ride from="C3B3" to="B0C0" arrivalPos="115.00" lines="taxi"/>
        <walk edges="C0D0" busStop="bs_23"/>
    </person>
    <person id="76" depart="1055.00">
        <stop busStop="bs_14" duration="0.00"/>
        <walk edges="A2A3" arrivalPos="115.00"/>
        <ride from="A2A3" to="D1D0" arrivalPos="115.00" lines="taxi"/>
        <walk edges="E0D0" busStop="bs_8"/>
    </person>
    <person id="77" depart="1069.00">
        <stop busStop="bs_19" duration="0.00"/>
        <walk edges="A2A1" arrivalPos="115.00"/>
        <ride from="A2A1" to="D3D4" arrivalPos="115.00" lines="taxi"/>
        <walk edges="D4E4" busStop="bs_3"/>
    </person>
    <person id="78" depart="1076.00">
        <stop busStop="bs_3" duration="0.00"/>
        <walk edges="D4E4" arrivalPos="115.00"/>
        <ride from="D4E4" to="B3A3" arrivalPos="115.00" lines="taxi"/>
        <walk edges="A2A3" busStop="bs_14"/>
    </person>
    <person id="79" depart="1077.00">
        <stop busStop="bs_25" duration="0.00"/>
        <walk edges="E0E1" arrivalPos="115.00"/>
        <ride from="E0E1" to="D4C4" arrivalPos="115.00" lines="taxi"/>
        <walk edges="B4C4" busStop="bs_1"/>
    </person>
    <person id="80" depart="1119.00">
        <stop busStop="bs_16" duration="0.00"/>
        <walk edges="B4A4" arrivalPos="115.00"/>
        <ride from="B4A4" to="A2A1" arrivalPos="115.00" lines="taxi"/>
        <walk edges="A1B1" busStop="bs_72"/>
    </person>
    <person id="81" depart="1126.00">
        <stop busStop="bs_61" duration="0.00"/>
        <walk edges="D3D2" arrivalPos="115.00"/>
        <ride from="D3D2" to="A2A3" arrivalPos="115.00" lines="taxi"/>
        <walk edges="A4A3" busStop="bs_17"/>
    </person>
    <person id="82" depart="1135.00">
        <stop busStop="bs_55" duration="0.00"/>
        <walk edges="B1B0" arrivalPos="115.00"/>
        <ride from="B1B0" to="E1E2" arrivalPos="115.00" lines="taxi"/>
        <walk edges="E2E3" busStop="bs_27"/>
    </person>
    <person id="83" depart="1143.00">
        <stop busStop="bs_22" duration="0.00"/>
        <walk edges="B0C0" arrivalPos="115.00"/>
        <ride from="B0C0" to="C3B3" arrivalPos="115.00" lines="taxi"/>
        <walk edges="B3A3" busStop="bs_71"/>
    </person>
    <person id="84" depart="1146.00">
        <stop busStop="bs_35" duration="0.00"/>
        <walk edges="C3C4" arrivalPos="115.00"/>
        <ride from="C3C4" to="D1D0" arrivalPos="115.00" lines="taxi"/>
        <walk edges="E0D0" busStop="bs_8"/>
    </person>
    <person id="85" depart="1151.00">
        <stop busStop="bs_51" duration="0.00"/>
        <walk edges="B3B4" arrivalPos="115.00"/>
        <ride from="B3B4" to="E3E2" arrivalPos="115.00" lines="taxi"/>
        <walk edges="E2E1" busStop="bs_6"/>
    </person>
    <person id="86" depart="1151.00">
        <stop busStop="bs_52" duration="0.00"/>
        <walk edges="B4B3" arrivalPos="115.00"/>
        <ride from="B4B3" to="D2E2" arrivalPos="115.00" lines="taxi"/>
        <walk edges="E2E1" busStop="bs_6"/>
    </person>
    <person id="87" depart="1164.00">
        <stop busStop="bs_2" duration="0.00"/>
        <walk edges="C4D4" arrivalPos="115.00"/>
        <ride from="C4D4" to="E2E1" arrivalPos="115.00" lines="taxi"/>
        <walk edges="E1E0" busStop="bs_7"/>
    </person>
    <person id="88" depart="1174.00">
        <stop busStop="bs_77" duration="0.00"/>
        <walk edges="D1C1" arrivalPos="115.00"/>
        <ride from="D1C1" to="B1A1" arrivalPos="115.00" lines="taxi"/>
        <walk edges="A0A1" busStop="bs_12"/>
    </person>
    <person id="89" depart="1206.00">
        <stop busStop="bs_36" duration="0.00"/>
        <walk edges="C4C3" arrivalPos="115.00"/>
        <ride from="C4C3" to="C1C0" arrivalPos="115.00" lines="taxi"/>
        <walk edges="C0B0" busStop="bs_10"/>
    </person>
    <person id="90" depart="1207.00">
        <stop busStop="bs_65" duration="0.00"/>
        <walk edges="A3B3" arrivalPos="115.00"/>
        <ride from="A3B3" to="D3D2" arrivalPos="115.00" lines="taxi"/>
        <walk edges="D2D1" busStop="bs_62"/>
    </person>
    <person id="91" depart="1216.00">
        <stop busStop="bs_7" duration="0.00"/>
        <walk edges="E1E0" arrivalPos="115.00"/>
        <ride from="E1E0" to="D3E3" arrivalPos="115.00" lines="taxi"/>
        <walk edges="E4E3" busStop="bs_4"/>
    </person>
    <person id="92" depart="1219.00">
        <stop busStop="bs_44" duration="0.00"/>
        <walk edges="E2D2" arrivalPos="115.00"/>
        <ride from="E2D2" to="B2A2" arrivalPos="115.00" lines="taxi"/>
        <walk edges="A1A2" busStop="bs_13"/>
    </person>
    <person id="93" depart="1221.00">
        <stop busStop="bs_65" duration="0.00"/>
        <walk edges="A3B3" arrivalPos="115.00"/>
        <ride from="A3B3" to="B2B1" arrivalPos="115.00" lines="taxi"/>
        <walk edges="B0B1" busStop="bs_48"/>
    </person>
    <person id="94" depart="1232.00">
        <stop busStop="bs_61" duration="0.00"/>
        <walk edges="D3D2" arrivalPos="115.00"/>
        <ride from="D3D2" to="A4B4" arrivalPos="45.00" lines="taxi"/>
        <walk edges="A4B4" busStop="bs_0"/>
    </person>
    <person id="95" depart="1240.00">
        <stop busStop="bs_45" duration="0.00"/>
        <walk edges="D2C2" arrivalPos="115.00"/>
        <ride from="D2C2" to="B2B3" arrivalPos="115.00" lines="taxi"/>
        <walk edges="A3B3" busStop="bs_65"/>
    </person>
    <person id="96" depart="1245.00">
        <stop busStop="bs_36" duration="0.00"/>
        <walk edges="C4C3" arrivalPos="115.00"/>
        <ride from="C4C3" to="D1E1" arrivalPos="115.00" lines="taxi"/>
        <walk edges="E1E0" busStop="bs_7"/>
    </person>
    <person id="97" depart="1263.00">
        <stop busStop="bs_30" duration="0.00"/>
        <walk edges="D4C4" arrivalPos="115.00"/>
        <ride from="D4C4" to="B4B3" arrivalPos="115.00" lines="taxi"/>
        <walk edges="B2B3" busStop="bs_50"/>
    </person>
    <person id="98" depart="1287.00">
        <stop busStop="bs_74" duration="0.00"/>
        <walk edges="C1D1" arrivalPos="115.00"/>
        <ride from="C1D1" to="B3A3" arrivalPos="115.00" lines="taxi"/>
        <walk edges="A4A3" busStop="bs_17"/>
    </person>
    <person id="99" depart="1295.00">
        <stop busStop="bs_26" duration="0.00"/>
        <walk edges="E1E2" arrivalPos="115.00"/>
        <ride from="E1E2" to="A4B4" arrivalPos="45.00" lines="taxi"/>
        <walk edges="A4B4" busStop="bs_0"/>
    </person>
    <person id="100" depart="1301.00">
        <stop busStop="bs_30" duration="0.00"/>
        <walk edges="D4C4" arrivalPos="115.00"/>
        <ride from="D4C4" to="C3C2" arrivalPos="115.00" lines="taxi"/>
        <walk edges="C1C2" busStop="bs_33"/>
    </person>
    <person id="101" depart="1308.00">
        <stop busStop="bs_30" duration="0.00"/>
        <walk edges="D4C4" arrivalPos="115.00"/>
        <ride from="D4C4" to="C2C1" arrivalPos="115.00" lines="taxi"/>
        <walk edges="C1C0" busStop="bs_39"/>
    </person>
    <person id="102" depart="1318.00">
        <stop busStop="bs_36" duration="0.00"/>
        <walk edges="C4C3" arrivalPos="115.00"/>
        <ride from="C4C3" to="D0E0" arrivalPos="45.00" lines="taxi"/>
        <walk edges="D0E0" busStop="bs_24"/>
    </person>
    <person id="103" depart="1325.00">
        <stop busStop="bs_57" duration="0.00"/>
        <walk edges="D1D2" arrivalPos="115.00"/>
        <ride from="D1D2" to="C3B3" arrivalPos="115.00" lines="taxi"/>
        <walk edges="B3B4" busStop="bs_51"/>
    </person>
    <person id="104" depart="1389.00">
        <stop busStop="bs_2" duration="0.00"/>
        <walk edges="C4D4" arrivalPos="115.00"/>
        <ride from="C4D4" to="C0B0" arrivalPos="115.00" lines="taxi"/>
        <walk edges="A0B0" busStop="bs_21"/>
    </person>
    <person id="105" depart="1415.00">
        <stop busStop="bs_10" duration="0.00"/>
        <walk edges="C0B0" arrivalPos="115.00"/>
        <ride from="C0B0" to="B2B3" arrivalPos="115.00" lines="taxi"/>
        <walk edges="B3A3" busStop="bs_71"/>
    </person>
    <person id="106" depart="1421.00">
        <stop busStop="bs_60" duration="0.00"/>
        <walk edges="D4D3" arrivalPos="115.00"/>
        <ride from="D4D3" to="C2B2" arrivalPos="115.00" lines="taxi"/>
        <walk edges="B1B2" busStop="bs_49"/>
    </person>
    <person id="107" depart="1437.00">
        <stop busStop="bs_10" duration="0.00"/>
        <walk edges="C0B0" arrivalPos="115.00"/>
        <ride from="C0B0" to="A2A3" arrivalPos="115.00" lines="taxi"/>
        <walk edges="A4A3" busStop="bs_17"/>
    </person>